<?xml version="1.0" encoding="UTF-8"?>

<!-- generated on 2024-12-23 15:02:28.727576 by randomTrips.py v1_20_0+0002-343658e7c64
<configuration>
    <net-file value="map.net.xml"/>
    <route-file value="map.rou.xml"/>
    <end value="100.0"/>
</configuration>
-->

<!-- generated on 2024-12-23 15:02:28 by Eclipse SUMO duarouter Version 1.20.0
<configuration xmlns:xsi="http://www.w3.org/2001/XMLSchema-instance" xsi:noNamespaceSchemaLocation="http://sumo.dlr.de/xsd/duarouterConfiguration.xsd">

    <input>
        <net-file value="map.net.xml"/>
        <route-files value="trips.trips.xml"/>
    </input>

    <output>
        <output-file value="map.rou.xml"/>
        <alternatives-output value="NUL"/>
    </output>

    <time>
        <begin value="0"/>
        <end value="100.0"/>
    </time>

    <report>
        <no-warnings value="true"/>
        <ignore-errors value="true"/>
        <no-step-log value="true"/>
    </report>

</configuration>
-->

<routes xmlns:xsi="http://www.w3.org/2001/XMLSchema-instance" xsi:noNamespaceSchemaLocation="http://sumo.dlr.de/xsd/routes_file.xsd">
    <vehicle id="0" depart="0.00">
        <route edges="31538718#1 31538718#2 -1249957902 -8364314#7 -8364314#6 -8364314#5 -8364314#4 -8364314#3 -8364314#2 -8364314#1 -8364314#0 -539534606#3 -539534606#2 -539534606#1 -539534606#0 -1164020778#1 -1164020778#0 -210112374 539534609#0 539534609#1 539534609#2 1134995869 539534607 1134995868 539534592#0 539534592#1 539534592#2 211779456 539540879#0 539540879#1 -150182429#11 -150182429#10 -150182429#9 -150182429#8 -150182429#7 -150182429#6 -150182429#5 -150182429#4 -150182429#3 -150182429#2 -150182429#1 -150182429#0 -1067864770#1 -1067864770#0 -1209218955 -1068268843 -1067864771#1"/>
    </vehicle>
    <vehicle id="1" depart="1.00">
        <route edges="-52091696#0 -150182429#3 -150182429#2 -150182429#1 -150182429#0 -1067864770#1 -1067864770#0 -1209218955 -1068268843 -1067864771#1 -1067864771#0 -849634898 -849634895#2 -849634895#1 -849634895#0 -134630577#1 -134630577#0 -849634912 -962307941#1 -962307941#0 -1067864772 -853099408 -853099402 -962307940 -962307939 -853099410 -134630578#1 -134630578#0 -853099397 -853099396#2 -853099396#1 -853099396#0 -853099405 -827046780#1 -827046780#0 -853099406#1 4255823#0 4255823#1 4255823#2 4255823#3 4255823#4 -4255823#4 -4255823#3"/>
    </vehicle>
    <vehicle id="2" depart="2.00">
        <route edges="4255675#3 -4255675#3 -4255675#2 -4255675#1 -4255675#0 -242156228#3 -242156228#2 -242156228#1 -242156228#0 -75592620#3 -75592620#2 -75592620#1 -75592620#0 -1067864774#1 -1067864774#0 -180377424#1 -180377424#0 1080152425 1080152424 999440226#0 31765735 -392134502#2 -392134502#1 392134502#1"/>
    </vehicle>
    <vehicle id="3" depart="3.00">
        <route edges="734646008#0 734646008#1 734646008#2 -734646008#2 -734646008#1 -734646008#0 -734646009#1 -734646009#0 -2700324 -134630572#6 -134630572#5 -134630572#4 -134630572#3 -134630572#2 -134630572#1 -134630572#0 -211779461#4 -211779461#3 -211779461#2 -211779461#1 -211779461#0 -539540870 211780341#0 211780341#1 211780341#2 539540879#0 539540879#1 -150182429#11 -150182429#10 -150182429#9 -150182429#8 -150182429#7 -150182429#6 -150182429#5 -150182429#4 -150182429#3 -150182429#2 -150182429#1"/>
    </vehicle>
    <vehicle id="4" depart="4.00">
        <route edges="1067864771#0 1067864771#1 1068268843 1209218955 1067864770#0 1067864770#1 150182429#0 150182429#1 150182429#2 150182429#3 150182429#4 150182429#5 150182429#6 150182429#7 150182429#8 -4255489#3 -4255489#2 -4255489#1 31538622#0 31538622#1 211779461#0 211779461#1 211779461#2 211779461#3 211779461#4 -1067864776#1"/>
    </vehicle>
    <vehicle id="5" depart="5.00">
        <route edges="-4255823#2 -4255823#1 -4255823#0 853099406#1 827046780#0 827046780#1 853099405 853099396#0 853099396#1 853099396#2 853099397 75592620#0 75592620#1 75592620#2 75592620#3 242156228#0 242156228#1 242156228#2 242156228#3 242156228#4 1067864775 1067864776#0 1067864776#1 -211779461#4 -211779461#3 -211779461#2 -211779461#1 -211779461#0 -539540870 211780341#0 211780341#1 211780341#2 380116492 539540880#0 539540880#1 -1067864769 -1067864768#1 -1067864768#0 -1067864767#4 -1067864767#3 -1067864767#2 -1067864767#1 -1067864767#0 -462430761#3 -462430761#2 -462430761#1 -462430761#0 -1067864766#1 -1067864766#0 -462430762 -44511379#13 -44511379#12 -44511379#11 -44511379#10 -44511379#9 -44511379#8 -44511379#7 -44511379#6 -44511379#5 -44511379#4 -44511379#3 -44511379#2 -44511379#1 -44511379#0 942508215#0 942508215#1 942508215#2 942508215#3 1263680733 1164030882 1263680735"/>
    </vehicle>
    <vehicle id="6" depart="6.00">
        <route edges="-1067864774#0 -180377424#1 -180377424#0 180377424#0 180377424#1 1067864774#0 1067864774#1 134630578#0 134630578#1 853099410 962307939 962307940 -684607760 -910041614 -666113869 -4255168#1 -4255170#3"/>
    </vehicle>
    <vehicle id="7" depart="7.00">
        <route edges="368634042#1 372676221#0 372676221#1 -372676221#1 -372676221#0 -368634042#1 -368634042#0 -368634142#1 -368634142#0 -368634143 -1238848312#3 -1238848312#2 -1238848312#1 -1238848312#0 -51979801#4 -51979801#3 -51979801#2 -51979801#1 -51979801#0 -856115887 -1053451468 -1053451469 -856115888 -849634923 -849634906 -1053451470 -849634907#1 -849634907#0 -1053451473 -1053451476#1 -1053451476#0 -849634920#1 -849634920#0 -849634914 -368634646 -849634905#1 -849634905#0 -849634924#2 -849634924#1 -849634924#0 -849634921 -849634899#1 -849634899#0 -849634900#1 -849634900#0 -51979796 1067864771#0 1067864771#1 1068268843 1209218955 1067864770#0 1067864770#1 150182429#0 150182429#1 150182429#2 150182429#3 150182429#4 150182429#5 150182429#6 150182429#7 150182429#8"/>
    </vehicle>
    <vehicle id="8" depart="8.00">
        <route edges="-4255823#4 -4255823#3 -4255823#2 -4255823#1 -4255823#0 853099406#1 827046780#0 827046780#1 853099405 853099396#0 853099396#1 853099396#2 853099397 75592620#0 75592620#1 75592620#2 75592620#3 242156228#0 242156228#1 242156228#2 242156228#3 242156228#4"/>
    </vehicle>
    <vehicle id="10" depart="10.00">
        <route edges="52091696#0 -52091696#0 -150182429#3 -150182429#2 -150182429#1 -150182429#0 -1067864770#1 -1067864770#0 -1209218955 -1068268843 -1067864771#1 -1067864771#0 -849634898 -849634895#2 -849634895#1 -849634895#0 -134630577#1 -134630577#0 -849634912 -962307941#1 -962307941#0 -1067864772 -853099408 -853099402 -684607760 -910041614 -666113869 -4255168#1 -4255170#3 -4255170#2 -4255170#1 -4255170#0 4255170#0 4255170#1 4255170#2"/>
    </vehicle>
    <vehicle id="11" depart="11.00">
        <route edges="-827046781 -827046782 -489056875#1 -489056875#0 -734644718 -817224086 -1137068553 -734644724 -366570224 -734644726 -734644723 -697263673 -1067155922#1 -1067155922#0 -667052780 -734644727#1 -734644727#0 -8028055 -134630572#6 -134630572#5 -134630572#4 -134630572#3 -134630572#2 -134630572#1 -134630572#0 -211779461#4 -211779461#3 -211779461#2 -211779461#1 -211779461#0 -539540870 211780341#0 211780341#1 211780341#2 380116492 539540880#0 539540880#1 -1067864769 -1067864768#1 -1067864768#0 -1067864767#4 -1067864767#3 -1067864767#2 -1067864767#1 -1067864767#0 -462430761#3 -462430761#2 -462430761#1 -462430761#0 -1067864766#1 -1067864766#0 -462430762 -44511379#13 -44511379#12 -44511379#11 -44511379#10 -44511379#9 -44511379#8 -44511379#7 -44511379#6 -44511379#5 -44511379#4 -44511379#3 -44511379#2 -44511379#1 -44511379#0 942508215#0 -332989743#1 -332989743#0 -332989742"/>
    </vehicle>
    <vehicle id="12" depart="12.00">
        <route edges="853099405 853099396#0 853099396#1 853099396#2 853099397 75592620#0 75592620#1 75592620#2 75592620#3 242156228#0 242156228#1 242156228#2 242156228#3 242156228#4 1067864775 1067864776#0 1067864776#1 1067864777#0 1067864777#1 1067864778 24396782#0 24396782#1 24396782#2 -5034982#1 -8114119"/>
    </vehicle>
    <vehicle id="13" depart="13.00">
        <route edges="-150182429#6 -150182429#5 -150182429#4 -150182429#3 -150182429#2 -150182429#1 -150182429#0 -1067864770#1 -1067864770#0 -1209218955 -1068268843 -1067864771#1 -1067864771#0 -849634898 -849634895#2 -849634895#1 -849634895#0 -134630577#1 -134630577#0 -849634912 -962307941#1 -962307941#0 -1067864772 -853099408 -853099402 -684607760 -910041614 -666113869 -4255168#1 -4255168#0 4305893#3 4305893#4 -134630573#2 -134630573#1 -134630573#0 -975202525 -975202524#1 -975202524#0 -4255852 -308122357 -1042677178 -161851363#4 -161851363#3 -161851363#2 -161851363#1 -161851363#0"/>
    </vehicle>
    <vehicle id="14" depart="14.00">
        <route edges="539540881 1134995869 539534607 1134995868 539534592#0 539534592#1 539534592#2 211779456 539540879#0 539540879#1 -150182429#11 -150182429#10 -150182429#9 -150182429#8 -150182429#7 -150182429#6 -150182429#5 -150182429#4 -150182429#3 -150182429#2 -150182429#1 505422757#0 505422757#1 95566824#0 95566824#1 95566824#2 1238848305 4253815#0 4253815#1 308122359 308122362#0 308122362#1 308122362#2 308122362#3 368634143 25279726#0 25279726#1"/>
    </vehicle>
    <vehicle id="15" depart="15.00">
        <route edges="52091696#1 -52091696#1 -52091696#0 -150182429#3 -150182429#2 -150182429#1 -150182429#0 -1067864770#1 -1067864770#0 -1209218955 -1068268843 -1067864771#1 -1067864771#0 -849634898 -849634895#2 -849634895#1 -849634895#0 -134630577#1 -134630577#0 -849634912 -962307941#1 -962307941#0 -1067864772 -853099408 -853099402 -684607760 -910041614 -4255663 666112896#4 1080153002 1067864773 1080152431 1080153001 1080152425 1080152424 999440226#0 999440226#1 999440226#2 999440226#3 999440226#4 999440226#5 4255664#0 4255664#1 4255664#2 4255664#3 4255664#4 4255664#5 4255666#0 4255666#1 4255666#2"/>
    </vehicle>
    <vehicle id="16" depart="16.00">
        <route edges="150182429#11 211781360#0 211781360#1 211781360#2 539540880#0 539540880#1 -1067864769 -1067864768#1 -1067864768#0 -1067864767#4 -1067864767#3 -1067864767#2 -1067864767#1 -1067864767#0 -462430761#3 -462430761#2 -462430761#1 -462430761#0 -1067864766#1 -1067864766#0 -462430762 -44511379#13 -44511379#12 -44511379#11 -44511379#10 -44511379#9 -44511379#8 -44511379#7 -44511379#6 -44511379#5 -44511379#4 -44511379#3 -44511379#2 -44511379#1 -44511379#0 942508215#0 942508215#1 942508215#2"/>
    </vehicle>
    <vehicle id="17" depart="17.00">
        <route edges="-853099408 -853099402 -684607760 -910041614 -4255663 666112896#4 1080153002 1067864773 1080152431 1080153001 180377424#0"/>
    </vehicle>
    <vehicle id="18" depart="18.00">
        <route edges="539534606#4 539534606#5 -539534606#5 -539534606#4 -539534606#3 -539534606#2 -539534606#1 -539534606#0 -1164020778#1 -1164020778#0 -210112374 539534609#0 539534609#1 539534609#2 1134995869 539534607 1134995868 539534592#0 539534592#1 539534592#2 211779456 380116492 539540880#0 539540880#1 -1067864769 -1067864768#1 -1067864768#0 -1067864767#4 -1067864767#3 -1067864767#2 -1067864767#1 -1067864767#0 -462430761#3 -462430761#2 -462430761#1 -462430761#0 -1067864766#1 -1067864766#0 -462430762 -44511379#13 -44511379#12 -44511379#11 -44511379#10 -44511379#9 -44511379#8 -44511379#7 -44511379#6 -44511379#5 -44511379#4 4733729#0 4733729#1 942508214#4 289511845#0 289511845#1"/>
    </vehicle>
    <vehicle id="19" depart="19.00">
        <route edges="627826162 -4255494#3 -4255494#2 -4255494#1 -4255494#0 242156228#2 242156228#3 242156228#4 1067864775 1067864776#0 1067864776#1 -211779461#4 -211779461#3 -211779461#2 -211779461#1 -211779461#0 -31538622#1 -31538622#0 4255489#1 4255489#2 4255489#3 150182429#9 150182429#10 150182429#11 211781360#0"/>
    </vehicle>
    <vehicle id="21" depart="21.00">
        <route edges="-4305893#1 -4305893#0 196120748#2 196120748#3 196120748#4 196120748#5 666112896#0 666112896#1 666112896#2 666112896#3 666112896#4 1080153002 1067864773 1080152431 1080153001 180377424#0 180377424#1 1067864774#0 1067864774#1 -853099397 -853099396#2 -853099396#1 -853099396#0 -853099405 -827046780#1 -827046780#0 -853099406#1 -853099406#0 -180377420 -853099399 -827046779#1 -827046779#0 -827046781 -827046782 -489056875#1 -489056875#0 477392538#0 477392538#1 1137068554#0 1137068554#1 366570228 734642866#0 734642866#1 734642873 1260590526 734642865 648841074 734642870#0 734642870#1 -58979656#2 -58979656#1 -58979656#0"/>
    </vehicle>
    <vehicle id="22" depart="22.00">
        <route edges="-134630573#1 -134630573#0 -975202525 975202525 134630573#0 134630573#1 134630573#2 -4305893#4 -4305893#3 -4305893#2"/>
    </vehicle>
    <vehicle id="24" depart="24.00">
        <route edges="31538622#0 31538622#1 -31538622#1 -31538622#0 4255489#1 4255489#2 4255489#3 -150182429#8 -150182429#7 -150182429#6 -150182429#5 -150182429#4 -150182429#3 -150182429#2 -150182429#1 -150182429#0 -1067864770#1 -1067864770#0 -1209218955 -1068268843 -1067864771#1 -1067864771#0 -849634898 -849634895#2 -849634895#1 -849634895#0 -134630577#1 -134630577#0 -849634912"/>
    </vehicle>
    <vehicle id="25" depart="25.00">
        <route edges="-853099396#0 -853099405 853099405 853099396#0 853099396#1 853099396#2 853099397 75592620#0 75592620#1 75592620#2 75592620#3 242156228#0 242156228#1 242156228#2 242156228#3 242156228#4 1067864775 1067864776#0 1067864776#1 -211779461#4 -211779461#3 -211779461#2 -211779461#1 -211779461#0 -31538622#1 -31538622#0 4255489#1 4255489#2 4255647#0 4255647#1 -4255647#1 -4255647#0"/>
    </vehicle>
    <vehicle id="26" depart="26.00">
        <route edges="-51434496#1 -51434496#0 -1067864780 -1335086285#1 -1335086285#0 -539534590#2 -539534590#1 -539534590#0 -1134995870 211780349#0 211780349#1 539534607 1134995868 539534592#0 539534592#1 539534592#2 211779456 539540879#0 539540879#1 -150182429#11 -150182429#10 -150182429#9 -150182429#8 -150182429#7 -150182429#6 -150182429#5 -150182429#4 -150182429#3 -150182429#2 -150182429#1 -150182429#0 -1067864770#1 -1067864770#0 -1209218955 -1068268843 -1067864771#1 -1067864771#0 51979796 849634900#0 849634900#1 849634899#0 849634899#1 849634921 849634924#0 849634924#1 849634924#2 849634905#0 849634905#1"/>
    </vehicle>
    <vehicle id="27" depart="27.00">
        <route edges="366570228 734642866#0 -734642866#0 -366570228 -1137068554#1 -1137068554#0 -477392538#1 -477392538#0 -734644718 -817224086 -1137068553 -734644724 -366570224 -734644726 -734644723 -697263673 -1067155922#1 -1067155922#0 -667052780 -734644727#1 -734644727#0 -8028055 -134630572#6 -134630572#5 -134630572#4 -134630572#3 -134630572#2 -134630572#1 -134630572#0 -211779461#4 -211779461#3 -211779461#2 -211779461#1 -211779461#0 -539540870 211780341#0 211780341#1 211780341#2 380116492 539540882 539540878#0 539540878#1 211782554#0 211782554#1 539540881 211781358 1134995870 539534595 1059354151#0 1059354151#1 539534597#0 539534597#1 539534603 -26248221 4859039 539536398 26248222#0"/>
    </vehicle>
    <vehicle id="28" depart="28.00">
        <route edges="-376615223#1 -376615223#0 -24396751 -1094378642#1 1094378643 24396752#0 24396752#1 24396752#2 5034985#2 5034985#3 5034985#4 -24396782#1 -24396782#0 -1067864778 -1067864777#1 -1067864777#0 -1067864776#1 -1067864776#0 -1067864775 -242156228#4 -242156228#3 -242156228#2 -242156228#1 -242156228#0 -75592620#3 -75592620#2 -75592620#1 -75592620#0 -1067864774#1 -1067864774#0 -180377424#1 -180377424#0 1080152425 1080152424 999440226#0 999440226#1 999440226#2 999440226#3 999440226#4 999440226#5 4255664#0 4255664#1 4255664#2 4255664#3 4255664#4 4255664#5 4255666#0 4255666#1"/>
    </vehicle>
    <vehicle id="29" depart="29.00">
        <route edges="-370831973 370831973 666112896#0 666112896#1 666112896#2 666112896#3 666112896#4 1080153002 1067864773 1080152431 1080153001 180377424#0 180377424#1 1067864774#0 1067864774#1 -853099397 -853099396#2 -853099396#1 -853099396#0 -853099405 -827046780#1 -827046780#0 -853099406#1 -853099406#0"/>
    </vehicle>
    <vehicle id="30" depart="30.00">
        <route edges="975202525 134630573#0 134630573#1 134630573#2 922089078 134630577#0 134630577#1 849634895#0 849634895#1 849634895#2 849634898 1067864771#0 1067864771#1 1068268843 1209218955 1067864770#0 1067864770#1 150182429#0 150182429#1 150182429#2 150182429#3 150182429#4 150182429#5 150182429#6 150182429#7 150182429#8 150182429#9 150182429#10 150182429#11 211781360#0 211781360#1 211781360#2 539540882 539540878#0 539540878#1 211782556#0 211782556#1 211782553#0 211782553#1 210112374 1164020778#0 1164020778#1 539534606#0 539534606#1 539534606#2 539534606#3 8364314#0 8364314#1 8364314#2 8364314#3 8364314#4 8364314#5 8364314#6 8364314#7 1249957902 -31538718#2 -31538718#1 -31538718#0 31538718#0 31538718#1 31538718#2"/>
    </vehicle>
    <vehicle id="32" depart="32.00">
        <route edges="539540878#1 211782554#0 211782554#1 539540881 211781358 1134995870 539534595 1059354151#0 1059354151#1 539534597#0 539534597#1 539534603 -26248221 4859039"/>
    </vehicle>
    <vehicle id="33" depart="33.00">
        <route edges="-4305893#2 -4305893#1 -4305893#0 196120748#2 196120748#3 196120748#4 196120748#5 666112896#0 666112896#1 666112896#2 666112896#3 666112896#4 1080153002 1067864773 1080152431 1080153001 180377424#0 180377424#1 1067864774#0 1067864774#1 75592620#0 75592620#1 75592620#2 75592620#3 242156228#0 242156228#1 242156228#2 242156228#3 242156228#4 1067864775 1067864776#0 1067864776#1 1067864777#0 1067864777#1 1067864778 24396782#0 24396782#1 -24396782#1 -24396782#0 -1067864778 -1067864777#1"/>
    </vehicle>
    <vehicle id="34" depart="34.00">
        <route edges="-734646008#1 -734646008#0 -734646009#1 -734646009#0 -2700324 -134630572#6 -134630572#5 -134630572#4 -134630572#3 -134630572#2 -134630572#1 -134630572#0 -211779461#4 -211779461#3 -211779461#2 -211779461#1 -211779461#0 -539540870 211780341#0 211780341#1 211780341#2 380116492 539540882 539540878#0 539540878#1 211782554#0 211782554#1 539540881 211781358 1134995870 539534590#0 539534590#1 539534590#2 1335086285#0 1335086285#1 1067864780 51434496#0 51434496#1 1067864781 -1067864781 -51434496#1 -51434496#0"/>
    </vehicle>
    <vehicle id="35" depart="35.00">
        <route edges="-4255669 4255669 -4255670 392134502#2 370831973 4255169#0 4255169#1 666113869 910041614 684607760 853099402 853099408 1067864772 962307941#0 962307941#1 849634912 134630577#0 134630577#1 849634895#0 849634895#1 849634895#2 849634898 51979796 849634900#0 849634900#1 849634899#0 849634899#1 849634921 849634924#0 849634924#1 849634924#2 849634905#0 849634905#1 368634646 849634914 849634920#0 849634920#1"/>
    </vehicle>
    <vehicle id="36" depart="36.00">
        <route edges="684607763#2 -684607763#2 -684607763#1 -684607763#0 910041615 4255522 -962307940 -962307939 -853099410 -134630578#1 -134630578#0 -853099397 -853099396#2 -853099396#1 -853099396#0 -853099405 -827046780#1 -827046780#0 -853099406#1 -853099406#0 -180377420 -853099399 -827046779#1 -827046779#0 -827046781 -827046782 -489056875#1 -489056875#0 -734644718 -817224086 -1137068553 -734644724"/>
    </vehicle>
    <vehicle id="38" depart="38.00">
        <route edges="827046779#1 853099399 180377420 853099406#0 853099406#1 827046780#0 827046780#1 853099405 853099396#0 853099396#1 853099396#2 853099397 75592620#0 75592620#1 75592620#2 75592620#3 242156228#0 242156228#1 242156228#2 242156228#3 242156228#4 1067864775 1067864776#0 1067864776#1 1067864777#0 1067864777#1 1067864778 24396782#0 24396782#1 -5034985#4 -5034985#3 -5034985#2 -24396752#2 -24396752#1 -24396752#0 -1094378643 -1094378642#0 -1067864779 -1094378641 1094378641 1067864779 1094378642#0"/>
    </vehicle>
    <vehicle id="39" depart="39.00">
        <route edges="-51434495#3 -51434495#2 -51434495#1 -51434495#0 -1067864781 -51434496#1 -51434496#0 -1067864780 -1335086285#1 -1335086285#0 -539534590#2 -539534590#1 -539534590#0 -1134995870 211780349#0 211780349#1 539534607 1134995868 539534592#0 539534592#1 539534592#2 211779456 380116492 539540880#0 539540880#1 -1067864769 -1067864768#1 -1067864768#0 -1067864767#4 -1067864767#3 -1067864767#2 -1067864767#1 -1067864767#0 -462430761#3 -462430761#2 -462430761#1 -462430761#0 -1067864766#1 -1067864766#0 -462430762 -44511379#13 -44511379#12 -44511379#11 -44511379#10 -44511379#9 -44511379#8"/>
    </vehicle>
    <vehicle id="40" depart="40.00">
        <route edges="211569509#1 -211569509#1 -211569509#0 4305893#4 922089078 -849634912 -962307941#1 -962307941#0 -1067864772 -853099408 -853099402 -962307940 -962307939 -853099410 -134630578#1 -134630578#0 75592620#0 75592620#1 75592620#2 75592620#3 242156228#0 242156228#1 242156228#2 242156228#3 242156228#4 1067864775 1067864776#0 1067864776#1 1067864777#0 1067864777#1 1067864778 24396782#0 24396782#1 -5034985#4 -5034985#3"/>
    </vehicle>
    <vehicle id="41" depart="41.00">
        <route edges="242156228#0 242156228#1 -242156228#1 -242156228#0 -75592620#3 -75592620#2 -75592620#1 -75592620#0 75592620#0"/>
    </vehicle>
    <vehicle id="42" depart="42.00">
        <route edges="1053451476#0 -1053451476#0 -849634920#1 -849634920#0 -849634914 -368634646 -849634905#1 -849634905#0 -849634924#2 -849634924#1 -849634924#0 -849634921 -849634899#1 -849634899#0 -849634900#1 -849634900#0 -51979796 1067864771#0 1067864771#1 1068268843 1209218955 1067864770#0 1067864770#1 150182429#0 150182429#1 150182429#2 150182429#3 150182429#4 150182429#5 150182429#6 150182429#7 150182429#8 -4255489#3 -4255489#2 -4255489#1 31538622#0 31538622#1 211779461#0 211779461#1 211779461#2 211779461#3 211779461#4 134630572#0 134630572#1 134630572#2 134630572#3 134630572#4 134630572#5 134630572#6 8028055 734644727#0 734644727#1 -4255675#3 -4255675#2"/>
    </vehicle>
    <vehicle id="43" depart="43.00">
        <route edges="999440226#4 -999440227 -370832021#0 -541355709 -30772499#3 -30772499#2 -30772499#1 -30772499#0 1150983287#2 1150983286#0 1150983286#1 1150983291 918958031 -734642865 -1260590526 -734642873 -734642866#1 -734642866#0 -366570228 -1137068554#1 -1137068554#0 -477392538#1 -477392538#0 -734644718 -817224086 -1137068553 -734644724 -366570224 -734644726 -734644723 -697263673 -1067155922#1 -1067155922#0 -667052780 -734644727#1 -734644727#0 -8028055 -134630572#6 -134630572#5 -134630572#4 -134630572#3 -134630572#2 -134630572#1 -134630572#0 -211779461#4 -211779461#3 -211779461#2 -211779461#1 -211779461#0 -539540870 211780341#0 211780341#1 211780341#2 380116492 539540882 539540878#0 539540878#1 211782554#0 211782554#1 539540881 211781358 1134995870 539534590#0 539534590#1 539534590#2 1335086285#0 1335086285#1"/>
    </vehicle>
    <vehicle id="44" depart="44.00">
        <route edges="-150182429#4 -150182429#3 -150182429#2 -150182429#1 -150182429#0 -1067864770#1 -1067864770#0 -1209218955 -1068268843 -1067864771#1 -1067864771#0 -849634898 -849634895#2 -849634895#1 -849634895#0 -134630577#1 -134630577#0 -849634912 -962307941#1 -962307941#0 -1067864772 -853099408 -853099402 -962307940 -962307939 -853099410 -134630578#1 -134630578#0 -853099397 -853099396#2 -853099396#1 -853099396#0 -853099405 -827046780#1 -827046780#0 -853099406#1 -853099406#0 -180377420 -853099399 -827046779#1 -827046779#0 -827046781 -827046782 -489056875#1 -489056875#0 -734644718 -817224086 -1137068553"/>
    </vehicle>
    <vehicle id="45" depart="45.00">
        <route edges="-211779461#4 -211779461#3 -211779461#2 -211779461#1 -211779461#0 -539540870 211780341#0 211780341#1 211780341#2 539540879#0 539540879#1 -150182429#11 -150182429#10 -150182429#9 -150182429#8 -150182429#7 -150182429#6 -150182429#5 -150182429#4 -150182429#3 -150182429#2 -150182429#1 -150182429#0 -1067864770#1 -1067864770#0 -1209218955 -1068268843 -1067864771#1 -1067864771#0 51979796 849634900#0 849634900#1 849634899#0 849634899#1 849634921 849634924#0 849634924#1 849634924#2 849634905#0 849634905#1 368634646 849634914 849634920#0 849634920#1 1053451476#0 42785027 308122354#0 308122354#1"/>
    </vehicle>
    <vehicle id="46" depart="46.00">
        <route edges="507040518#5 507040518#6 507040518#7 537863432 1055245850#0 1055245850#1 147680889#2 147680889#3 147680889#4 147680889#5 147680889#6 147680889#7 1136877988 1136877987 1335845458 462430762 1067864766#0 1067864766#1 462430761#0 462430761#1 462430761#2 462430761#3 1067864767#0 1067864767#1 1067864767#2 1067864767#3 1067864767#4 1067864768#0 1067864768#1 1067864769 211780343#0 211780343#1 211780343#2 539540874 211779456 539540879#0 539540879#1 -150182429#11 -150182429#10 -150182429#9 -150182429#8 -150182429#7 -150182429#6 -150182429#5 -150182429#4 -150182429#3 -150182429#2 -150182429#1 -150182429#0 -1067864770#1 -1067864770#0 -1209218955 -1068268843 -1067864771#1 -1067864771#0 1067864771#0 1067864771#1 1068268843 1209218955 1067864770#0"/>
    </vehicle>
    <vehicle id="47" depart="47.00">
        <route edges="-1249947056 4255669 -4255670 392134502#2 370831973 4255169#0 4255169#1 -4255168#1 -4255168#0 4305893#3 4305893#4 922089078 -849634912 -962307941#1 -962307941#0 -1067864772 -853099408"/>
    </vehicle>
    <vehicle id="48" depart="48.00">
        <route edges="999440226#2 999440226#3 999440226#4 999440226#5 31765734 4255669 -4255670 392134502#2 370831973 4255169#0 4255169#1 666113869 910041614 684607760 853099402 853099408 1067864772 962307941#0 962307941#1 849634912 134630577#0 134630577#1 849634895#0 849634895#1 849634895#2 849634898 51979796 849634900#0 849634900#1 849634899#0 849634899#1 849634921 849634924#0 849634924#1 849634924#2 849634905#0 849634905#1 368634646 849634914 849634920#0 849634920#1 1053451476#0 42785027 308122354#0 308122354#1 1238848305 147680889#0 147680889#1"/>
    </vehicle>
    <vehicle id="49" depart="49.00">
        <route edges="942508214#3 942508214#4 289511845#0 289511845#1 289511845#2 289511845#3 289511845#4 1263680734 1263680732 942508216#0 942508216#1 942508216#2 942508216#3 44511379#0 44511379#1 44511379#2 44511379#3 44511379#4 44511379#5 44511379#6 44511379#7 44511379#8 44511379#9 44511379#10 44511379#11 44511379#12 44511379#13 462430762 1067864766#0 1067864766#1 462430761#0 462430761#1 462430761#2 462430761#3 1067864767#0 1067864767#1 1067864767#2 1067864767#3 1067864767#4 1067864768#0 1067864768#1 1067864769 211780343#0 211780343#1 211780343#2 539540874 539540865#0 539540865#1 539540865#2 539540870 211779461#0 211779461#1 211779461#2 211779461#3 211779461#4 134630572#0 134630572#1 134630572#2 134630572#3 134630572#4 134630572#5 134630572#6 8028055 734644727#0 734644727#1 667052780 1067155922#0 1067155922#1 697263673 734644723 734644726 366570224 734644724 1137068553 817224086 734644718 477392538#0 477392538#1 1137068554#0 1137068554#1 366570228 734642866#0 734642866#1 734642873 1260590526 734642865 648841074"/>
    </vehicle>
    <vehicle id="50" depart="50.00">
        <route edges="-1067155922#1 -1067155922#0 -667052780 -4255675#3 -4255675#2 -4255675#1 -4255675#0 -242156228#3 -242156228#2 -242156228#1 -242156228#0 -75592620#3 -75592620#2 -75592620#1 -75592620#0 -1067864774#1 -1067864774#0 -180377424#1 -180377424#0 1080152425 1080152424 999440226#0 999440226#1 999440226#2 999440226#3 999440226#4 999440226#5 4255664#0"/>
    </vehicle>
    <vehicle id="51" depart="51.00">
        <route edges="392134508#2 392134508#3 392134508#4 1080155807 1080155810 1080155809 196120748#0 196120748#1 4305893#0 4305893#1 4305893#2 4305893#3 4305893#4 922089078 134630577#0 134630577#1 849634895#0 849634895#1 849634895#2 849634898 1067864771#0 1067864771#1 1068268843 1209218955 1067864770#0 1067864770#1 150182429#0 150182429#1"/>
    </vehicle>
    <vehicle id="52" depart="52.00">
        <route edges="-51434496#1 -51434496#0 -1067864780 -1335086285#1 -1335086285#0 -539534590#2 -539534590#1 -539534590#0 -1134995870 211780349#0 211780349#1 539534607 1134995868 539534592#0 539534592#1 539534592#2 539540865#0 539540865#1 539540865#2 539540870 211779461#0 211779461#1 211779461#2 211779461#3 211779461#4 -1067864776#1 -1067864776#0 -1067864775 -242156228#4 -242156228#3 -242156228#2 -242156228#1 -242156228#0 -75592620#3 -75592620#2 -75592620#1 -75592620#0 -1067864774#1 -1067864774#0 -180377424#1 -180377424#0 1080152425 1080152424 999440226#0 999440226#1 999440226#2 999440226#3 999440226#4 -999440227 370832021#1 370832021#2 31765733"/>
    </vehicle>
    <vehicle id="53" depart="53.00">
        <route edges="-242156228#2 242156228#2 242156228#3 242156228#4 1067864775 1067864776#0 1067864776#1 1067864777#0 1067864777#1 1067864778"/>
    </vehicle>
    <vehicle id="54" depart="54.00">
        <route edges="1094378600 1094378599 1094378597 26248224#0 26248224#1 1094378591 1094378593 26248225#0 26248225#1 197398744 379017485#0 379017485#1 1067864780 51434496#0 51434496#1 1067864781 -1067864781 -51434496#1 -51434496#0 -1067864780 -1335086285#1 -1335086285#0 -539534590#2 -539534590#1 -539534590#0 -1134995870 211780349#0 211780349#1 539534607 1134995868 539534592#0 539534592#1 539534592#2 539540865#0 539540865#1 539540865#2 539540870 211779461#0 211779461#1 211779461#2 211779461#3 211779461#4 134630572#0 134630572#1 134630572#2 134630572#3 134630572#4 134630572#5 134630572#6 8028055 734644727#0 734644727#1 667052780 1067155922#0 1067155922#1 697263673 734644723 734644726 366570224 734644724 1137068553 817224086 734644718 489056875#0 489056875#1 827046782 827046781 827046779#0 827046779#1 853099399"/>
    </vehicle>
    <vehicle id="55" depart="55.00">
        <route edges="684607763#2 627826162 -4255494#3 -4255494#2 -4255494#1 -4255494#0 242156228#2 242156228#3 242156228#4 1067864775 1067864776#0 1067864776#1 1067864777#0 1067864777#1 1067864778 24396782#0 24396782#1 -5034985#4"/>
    </vehicle>
    <vehicle id="56" depart="56.00">