<?xml version="1.0" encoding="UTF-8"?>

<!-- generated on 2024-12-23 15:02:25 by Eclipse SUMO netconvert Version 1.20.0
<configuration xmlns:xsi="http://www.w3.org/2001/XMLSchema-instance" xsi:noNamespaceSchemaLocation="http://sumo.dlr.de/xsd/netconvertConfiguration.xsd">

    <input>
        <osm-files value="C:\Users\asus\Desktop\CSDD\urban-mobility-simulation-development\backend\controllers\2024-12-23T20-02-23-860Z\map.osm"/>
    </input>

    <output>
        <output-file value="map.net.xml"/>
    </output>

    <projection>
        <proj.utm value="true"/>
    </projection>

</configuration>
-->

<net version="1.20" junctionCornerDetail="5" limitTurnSpeed="5.50" xmlns:xsi="http://www.w3.org/2001/XMLSchema-instance" xsi:noNamespaceSchemaLocation="http://sumo.dlr.de/xsd/net_file.xsd">

    <location netOffset="-700786.10,-5708881.53" convBoundary="0.00,0.00,1372.86,1542.48" origBoundary="-0.106822,51.495143,-0.086772,51.508730" projParameter="+proj=utm +zone=30 +ellps=WGS84 +datum=WGS84 +units=m +no_defs"/>

    <type id="highway.cycleway" priority="1" numLanes="1" speed="5.56" allow="bicycle" oneway="0" width="2.00"/>
    <type id="highway.footway" priority="1" numLanes="1" speed="2.78" allow="pedestrian" oneway="1" width="2.00"/>
    <type id="highway.path" priority="1" numLanes="1" speed="5.56" allow="pedestrian bicycle" oneway="0" width="2.00"/>
    <type id="highway.pedestrian" priority="1" numLanes="1" speed="2.78" allow="pedestrian" oneway="1" width="2.00"/>
    <type id="highway.primary" priority="12" numLanes="2" speed="27.78" disallow="tram rail_urban rail rail_electric rail_fast ship container cable_car subway aircraft wheelchair scooter drone" oneway="0"/>
    <type id="highway.primary_link" priority="7" numLanes="1" speed="22.22" disallow="tram rail_urban rail rail_electric rail_fast ship container cable_car subway aircraft wheelchair scooter drone" oneway="0"/>
    <type id="highway.residential" priority="3" numLanes="1" speed="13.89" disallow="tram rail_urban rail rail_electric rail_fast ship container cable_car subway aircraft wheelchair scooter drone" oneway="0"/>
    <type id="highway.secondary" priority="11" numLanes="1" speed="27.78" disallow="tram rail_urban rail rail_electric rail_fast ship container cable_car subway aircraft wheelchair scooter drone" oneway="0"/>
    <type id="highway.service" priority="1" numLanes="1" speed="5.56" allow="pedestrian delivery bicycle" oneway="0"/>
    <type id="highway.steps" priority="1" numLanes="1" speed="1.39" allow="pedestrian" oneway="1" width="2.00"/>
    <type id="highway.unclassified" priority="4" numLanes="1" speed="13.89" disallow="tram rail_urban rail rail_electric rail_fast ship container cable_car subway aircraft wheelchair scooter drone" oneway="0"/>
    <type id="railway.rail" priority="20" numLanes="1" speed="44.44" allow="rail" oneway="1"/>
    <type id="railway.subway" priority="18" numLanes="1" speed="27.78" allow="subway" oneway="1"/>

    <edge id=":10023127793_0" function="internal">
        <lane id=":10023127793_0_0" index="0" allow="pedestrian bicycle" speed="5.56" length="0.28" width="2.00" shape="1141.69,497.61 1141.85,497.38"/>
    </edge>
    <edge id=":10023127794_0" function="internal">
        <lane id=":10023127794_0_0" index="0" disallow="tram rail_urban rail rail_electric rail_fast ship container cable_car subway aircraft wheelchair scooter drone" speed="8.94" length="0.27" shape="1138.41,495.32 1138.25,495.54"/>
    </edge>
    <edge id=":10023127795_0" function="internal">
        <lane id=":10023127795_0_0" index="0" disallow="tram rail_urban rail rail_electric rail_fast ship container cable_car subway aircraft wheelchair scooter drone" speed="8.94" length="0.68" shape="1124.04,517.30 1123.62,517.83"/>
    </edge>
    <edge id=":10023127796_0" function="internal">
        <lane id=":10023127796_0_0" index="0" disallow="tram rail_urban rail rail_electric rail_fast ship container cable_car subway aircraft wheelchair scooter drone" speed="8.94" length="0.31" shape="1118.88,509.00 1118.61,508.84"/>
    </edge>
    <edge id=":10023127796_1" function="internal">
        <lane id=":10023127796_1_0" index="0" disallow="tram rail_urban rail rail_electric rail_fast ship container cable_car subway aircraft wheelchair scooter drone" speed="8.94" length="0.26" shape="1120.36,506.15 1120.58,506.29"/>
    </edge>
    <edge id=":10023127797_0" function="internal">
        <lane id=":10023127797_0_0" index="0" disallow="tram rail_urban rail rail_electric rail_fast ship container cable_car subway aircraft wheelchair scooter drone" speed="8.94" length="0.30" shape="1146.28,523.83 1146.02,523.69"/>
    </edge>
    <edge id=":10023127797_1" function="internal">
        <lane id=":10023127797_1_0" index="0" disallow="tram rail_urban rail rail_electric rail_fast ship container cable_car subway aircraft wheelchair scooter drone" speed="8.94" length="0.30" shape="1147.46,520.84 1147.73,520.97"/>
    </edge>
    <edge id=":10023127798_0" function="internal">
        <lane id=":10023127798_0_0" index="0" disallow="tram rail_urban rail rail_electric rail_fast ship container cable_car subway aircraft wheelchair scooter drone" speed="8.94" length="0.28" shape="1212.92,399.30 1212.76,399.52"/>
    </edge>
    <edge id=":10023127798_1" function="internal">
        <lane id=":10023127798_1_0" index="0" disallow="tram rail_urban rail rail_electric rail_fast ship container cable_car subway aircraft wheelchair scooter drone" speed="8.94" length="0.31" shape="1210.17,397.64 1210.35,397.39"/>
    </edge>
    <edge id=":10023127799_0" function="internal">
        <lane id=":10023127799_0_0" index="0" disallow="tram rail_urban rail rail_electric rail_fast ship container cable_car subway aircraft wheelchair scooter drone" speed="8.94" length="12.18" shape="1208.53,405.32 1206.40,407.84 1204.35,409.75 1202.34,411.67 1200.28,414.25"/>
    </edge>
    <edge id=":10023127799_1" function="internal">
        <lane id=":10023127799_1_0" index="0" disallow="tram rail_urban rail rail_electric rail_fast ship container cable_car subway aircraft wheelchair scooter drone" speed="8.01" length="13.75" shape="1208.53,405.32 1205.92,408.01 1203.06,409.26 1199.93,409.08 1196.55,407.47"/>
    </edge>
    <edge id=":10023127799_2" function="internal">
        <lane id=":10023127799_2_0" index="0" disallow="tram rail_urban rail rail_electric rail_fast ship container cable_car subway aircraft wheelchair scooter drone" speed="3.65" length="4.67" shape="1208.53,405.32 1207.18,405.82 1206.30,405.67 1205.89,404.88 1205.95,403.44"/>
    </edge>
    <edge id=":10023127799_3" function="internal">
        <lane id=":10023127799_3_0" index="0" disallow="tram rail_urban rail rail_electric rail_fast ship container cable_car subway aircraft wheelchair scooter drone" speed="6.51" length="8.75" shape="1198.32,404.81 1200.47,405.83 1202.46,405.95 1204.29,405.15 1205.95,403.44"/>
    </edge>
    <edge id=":10023127799_4" function="internal">
        <lane id=":10023127799_4_0" index="0" disallow="tram rail_urban rail rail_electric rail_fast ship container cable_car subway aircraft wheelchair scooter drone" speed="7.10" length="11.02" shape="1198.32,404.81 1200.60,406.83 1201.69,409.08 1201.58,411.55 1200.28,414.25"/>
    </edge>
    <edge id=":10023127799_5" function="internal">
        <lane id=":10023127799_5_0" index="0" disallow="tram rail_urban rail rail_electric rail_fast ship container cable_car subway aircraft wheelchair scooter drone" speed="3.65" length="4.67" shape="1198.32,404.81 1198.88,406.14 1198.77,407.02 1197.99,407.47 1196.55,407.47"/>
    </edge>
    <edge id=":10023127801_0" function="internal">
        <lane id=":10023127801_0_0" index="0" allow="pedestrian bicycle" speed="5.56" length="0.48" width="2.00" shape="1197.50,421.87 1197.61,422.33"/>
    </edge>
    <edge id=":10023127802_0" function="internal">
        <lane id=":10023127802_0_0" index="0" disallow="tram rail_urban rail rail_electric rail_fast ship container cable_car subway aircraft wheelchair scooter drone" speed="8.94" length="0.43" shape="1194.74,421.04 1195.06,420.75"/>
    </edge>
    <edge id=":10023127803_0" function="internal">
        <lane id=":10023127803_0_0" index="0" disallow="tram rail_urban rail rail_electric rail_fast ship container cable_car subway aircraft wheelchair scooter drone" speed="8.94" length="0.24" shape="1195.92,407.05 1195.72,406.92"/>
    </edge>
    <edge id=":10023127803_1" function="internal">
        <lane id=":10023127803_1_0" index="0" disallow="tram rail_urban rail rail_electric rail_fast ship container cable_car subway aircraft wheelchair scooter drone" speed="8.94" length="0.31" shape="1197.43,404.21 1197.69,404.38"/>
    </edge>
    <edge id=":10023127804_0" function="internal">
        <lane id=":10023127804_0_0" index="0" disallow="tram rail_urban rail rail_electric rail_fast ship container cable_car subway aircraft wheelchair scooter drone" speed="8.94" length="1.56" shape="1200.17,414.42 1201.04,413.12"/>
    </edge>
    <edge id=":10023127811_0" function="internal">
        <lane id=":10023127811_0_0" index="0" disallow="tram rail_urban rail rail_electric rail_fast ship container cable_car subway aircraft wheelchair scooter drone" speed="3.65" length="4.67" shape="1238.33,359.74 1239.69,359.25 1240.57,359.41 1240.97,360.20 1240.90,361.64"/>
    </edge>
    <edge id=":10023147108_0" function="internal">
        <lane id=":10023147108_0_0" index="0" disallow="tram rail_urban rail rail_electric rail_fast ship container cable_car subway aircraft wheelchair scooter drone" speed="8.94" length="0.30" shape="1047.78,453.03 1047.54,452.85"/>
    </edge>
    <edge id=":10023147108_1" function="internal">
        <lane id=":10023147108_1_0" index="0" disallow="tram rail_urban rail rail_electric rail_fast ship container cable_car subway aircraft wheelchair scooter drone" speed="8.94" length="0.30" shape="1049.47,450.30 1049.71,450.48"/>
    </edge>
    <edge id=":10023147109_0" function="internal">
        <lane id=":10023147109_0_0" index="0" disallow="tram rail_urban rail rail_electric rail_fast ship container cable_car subway aircraft wheelchair scooter drone" speed="8.94" length="0.37" shape="1027.91,435.71 1028.18,435.97"/>
    </edge>
    <edge id=":10023147109_1" function="internal">
        <lane id=":10023147109_1_0" index="0" disallow="tram rail_urban rail rail_electric rail_fast ship container cable_car subway aircraft wheelchair scooter drone" speed="8.94" length="0.37" shape="1030.38,433.64 1030.11,433.39"/>
    </edge>
    <edge id=":10023147110_0" function="internal">
        <lane id=":10023147110_0_0" index="0" disallow="tram rail_urban rail rail_electric rail_fast ship container cable_car subway aircraft wheelchair scooter drone" speed="8.94" length="0.10" shape="1028.37,448.05 1028.37,448.05"/>
    </edge>
    <edge id=":10023147110_1" function="internal">
        <lane id=":10023147110_1_0" index="0" disallow="tram rail_urban rail rail_electric rail_fast ship container cable_car subway aircraft wheelchair scooter drone" speed="8.94" length="0.10" shape="1026.04,445.86 1026.04,445.86"/>
    </edge>
    <edge id=":10043157597_0" function="internal">
        <lane id=":10043157597_0_0" index="0" allow="pedestrian delivery bicycle" speed="5.47" length="5.46" shape="427.99,879.17 426.68,879.33 425.65,879.96 424.91,881.05 424.45,882.60"/>
    </edge>
    <edge id=":10043157597_1" function="internal">
        <lane id=":10043157597_1_0" index="0" disallow="tram rail_urban rail rail_electric rail_fast ship container cable_car subway aircraft wheelchair scooter drone" speed="8.94" length="9.39" shape="427.99,879.17 418.62,878.57"/>
    </edge>
    <edge id=":10043157597_2" function="internal">
        <lane id=":10043157597_2_0" index="0" disallow="tram rail_urban rail rail_electric rail_fast ship container cable_car subway aircraft wheelchair scooter drone" speed="8.94" length="9.30" shape="418.86,875.38 428.14,875.97"/>
    </edge>
    <edge id=":10043157597_3" function="internal">
        <lane id=":10043157597_3_0" index="0" allow="pedestrian delivery bicycle" speed="6.79" length="3.28" shape="418.86,875.38 421.76,876.03 422.01,876.22"/>
    </edge>
    <edge id=":10043157597_7" function="internal">
        <lane id=":10043157597_7_0" index="0" allow="pedestrian delivery bicycle" speed="6.79" length="7.39" shape="422.01,876.22 423.65,877.45 424.55,879.64 424.45,882.60"/>
    </edge>
    <edge id=":10043157597_4" function="internal">
        <lane id=":10043157597_4_0" index="0" allow="pedestrian delivery bicycle" speed="4.94" length="5.12" shape="421.30,882.04 421.35,880.62 420.92,879.57 420.01,878.88 418.62,878.57"/>
    </edge>
    <edge id=":10043157597_5" function="internal">
        <lane id=":10043157597_5_0" index="0" allow="pedestrian delivery bicycle" speed="7.19" length="10.15" shape="421.30,882.04 422.15,879.28 423.58,877.35 425.57,876.25 428.14,875.97"/>
    </edge>
    <edge id=":10043157597_6" function="internal">
        <lane id=":10043157597_6_0" index="0" allow="pedestrian delivery bicycle" speed="3.65" length="4.67" shape="421.30,882.04 422.30,881.00 423.16,880.75 423.87,881.28 424.45,882.60"/>
    </edge>
    <edge id=":10043157598_0" function="internal">
        <lane id=":10043157598_0_0" index="0" allow="pedestrian delivery bicycle" speed="5.56" length="9.29" shape="425.86,893.08 423.11,892.83 421.23,892.71 419.34,892.68 416.58,892.72"/>
    </edge>
    <edge id=":10043157598_1" function="internal">
        <lane id=":10043157598_1_0" index="0" allow="pedestrian delivery bicycle" speed="5.56" length="8.00" shape="425.86,893.08 423.08,892.61 421.19,891.77 420.18,890.58 420.05,889.03"/>
    </edge>
    <edge id=":10043157598_2" function="internal">
        <lane id=":10043157598_2_0" index="0" allow="pedestrian delivery bicycle" speed="5.56" length="7.87" shape="423.20,889.59 422.58,890.92 421.27,891.88 419.27,892.48 416.58,892.72"/>
    </edge>
    <edge id=":10043157598_3" function="internal">
        <lane id=":10043157598_3_0" index="0" allow="pedestrian delivery bicycle" speed="3.65" length="4.67" shape="423.20,889.59 422.20,890.63 421.34,890.89 420.62,890.35 420.05,889.03"/>
    </edge>
    <edge id=":10188991178_0" function="internal">
        <lane id=":10188991178_0_0" index="0" disallow="tram rail_urban rail rail_electric rail_fast ship container cable_car subway aircraft wheelchair scooter drone" speed="8.94" length="8.88" shape="491.80,620.15 483.23,617.86"/>
    </edge>
    <edge id=":10188991178_1" function="internal">
        <lane id=":10188991178_1_0" index="0" allow="pedestrian delivery bicycle" speed="6.03" length="7.32" shape="491.80,620.15 489.42,619.25 487.82,618.19 487.01,616.97 486.97,615.58"/>
    </edge>
    <edge id=":10188991178_2" function="internal">
        <lane id=":10188991178_2_0" index="0" allow="pedestrian delivery bicycle" speed="6.09" length="7.75" shape="490.08,616.35 489.38,617.56 488.00,618.22 485.95,618.32 483.23,617.86"/>
    </edge>
    <edge id=":10188991178_3" function="internal">
        <lane id=":10188991178_3_0" index="0" allow="pedestrian delivery bicycle" speed="3.65" length="4.67" shape="490.08,616.35 489.02,617.32 488.14,617.52 487.46,616.94 486.97,615.58"/>
    </edge>
    <edge id=":10196823397_0" function="internal">
        <lane id=":10196823397_0_0" index="0" allow="pedestrian delivery bicycle" speed="3.65" length="4.67" shape="851.27,391.24 851.45,392.67 851.11,393.49 850.24,393.71 848.85,393.33"/>
    </edge>
    <edge id=":10196823399_0" function="internal">
        <lane id=":10196823399_0_0" index="0" allow="pedestrian delivery bicycle" speed="5.56" length="7.38" shape="848.72,393.18 847.31,391.50 846.21,390.40 844.90,389.68 842.82,389.15"/>
    </edge>
    <edge id=":10196823399_1" function="internal">
        <lane id=":10196823399_1_0" index="0" allow="pedestrian delivery bicycle" speed="5.56" length="10.01" shape="848.72,393.18 847.54,391.10 847.68,389.13 849.13,387.26 851.90,385.49"/>
    </edge>
    <edge id=":10196823399_2" function="internal">
        <lane id=":10196823399_2_0" index="0" allow="pedestrian delivery bicycle" speed="3.65" length="4.67" shape="848.72,393.18 848.54,391.75 848.89,390.92 849.75,390.70 851.14,391.08"/>
    </edge>
    <edge id=":10196823399_3" function="internal">
        <lane id=":10196823399_3_0" index="0" allow="pedestrian delivery bicycle" speed="4.29" length="3.97" shape="853.34,388.35 852.01,389.12 851.20,389.83 850.91,390.49 851.14,391.08"/>
    </edge>
    <edge id=":10196823399_4" function="internal">
        <lane id=":10196823399_4_0" index="0" allow="pedestrian delivery bicycle" speed="5.56" length="10.86" shape="853.34,388.35 850.50,389.56 848.25,389.95 845.91,389.74 842.82,389.15"/>
    </edge>
    <edge id=":10196823399_5" function="internal">
        <lane id=":10196823399_5_0" index="0" allow="pedestrian delivery bicycle" speed="3.65" length="4.67" shape="853.34,388.35 851.91,388.18 851.19,387.64 851.19,386.75 851.90,385.49"/>
    </edge>
    <edge id=":10196823399_6" function="internal">
        <lane id=":10196823399_6_0" index="0" allow="pedestrian delivery bicycle" speed="5.56" length="6.58" shape="845.60,386.42 847.50,386.73 848.86,386.72 850.16,386.32 851.90,385.49"/>
    </edge>
    <edge id=":10196823399_7" function="internal">
        <lane id=":10196823399_7_0" index="0" allow="pedestrian delivery bicycle" speed="5.56" length="7.51" shape="845.60,386.42 847.63,387.06 848.82,387.98 849.78,389.30 851.14,391.08"/>
    </edge>
    <edge id=":10196823399_8" function="internal">
        <lane id=":10196823399_8_0" index="0" allow="pedestrian delivery bicycle" speed="3.90" length="5.68" shape="845.60,386.42 845.93,388.15 845.57,389.17 844.54,389.51 842.82,389.15"/>
    </edge>
    <edge id=":10196823400_0" function="internal">
        <lane id=":10196823400_0_0" index="0" allow="pedestrian delivery bicycle" speed="3.65" length="4.67" shape="861.77,380.54 863.21,380.71 863.92,381.25 863.92,382.14 863.21,383.40"/>
    </edge>
    <edge id=":10196823402_0" function="internal">
        <lane id=":10196823402_0_0" index="0" allow="pedestrian delivery bicycle" speed="8.94" length="9.43" shape="819.26,455.61 813.58,448.08"/>
    </edge>
    <edge id=":10196823402_1" function="internal">
        <lane id=":10196823402_1_0" index="0" allow="pedestrian delivery bicycle" speed="7.15" length="3.07" shape="819.26,455.61 818.02,453.30 817.98,452.85"/>
    </edge>
    <edge id=":10196823402_2" function="internal">
        <lane id=":10196823402_2_0" index="0" allow="pedestrian delivery bicycle" speed="3.65" length="1.44" shape="819.26,455.61 819.18,454.17"/>
    </edge>
    <edge id=":10196823402_9" function="internal">
        <lane id=":10196823402_9_0" index="0" allow="pedestrian delivery bicycle" speed="7.15" length="7.15" shape="817.98,452.85 817.82,451.02 818.65,448.76 820.50,446.53"/>
    </edge>
    <edge id=":10196823402_10" function="internal">
        <lane id=":10196823402_10_0" index="0" allow="pedestrian delivery bicycle" speed="3.65" length="3.23" shape="819.18,454.17 819.57,453.37 820.45,453.21 821.81,453.68"/>
    </edge>
    <edge id=":10196823402_3" function="internal">
        <lane id=":10196823402_3_0" index="0" allow="pedestrian delivery bicycle" speed="5.42" length="5.45" shape="822.69,448.87 821.64,450.09 821.15,451.31 821.21,452.50 821.81,453.68"/>
    </edge>
    <edge id=":10196823402_4" function="internal">
        <lane id=":10196823402_4_0" index="0" allow="pedestrian delivery bicycle" speed="6.78" length="10.70" shape="822.69,448.87 820.25,450.57 817.92,451.00 815.69,450.18 813.58,448.08"/>
    </edge>
    <edge id=":10196823402_5" function="internal">
        <lane id=":10196823402_5_0" index="0" allow="pedestrian delivery bicycle" speed="3.65" length="4.67" shape="822.69,448.87 821.27,449.10 820.43,448.79 820.17,447.93 820.50,446.53"/>
    </edge>
    <edge id=":10196823402_6" function="internal">
        <lane id=":10196823402_6_0" index="0" allow="pedestrian delivery bicycle" speed="4.93" length="5.13" shape="816.13,446.15 817.15,447.16 818.21,447.55 819.33,447.35 820.50,446.53"/>
    </edge>
    <edge id=":10196823402_7" function="internal">
        <lane id=":10196823402_7_0" index="0" allow="pedestrian delivery bicycle" speed="8.94" length="9.43" shape="816.13,446.15 821.81,453.68"/>
    </edge>
    <edge id=":10196823402_8" function="internal">
        <lane id=":10196823402_8_0" index="0" allow="pedestrian delivery bicycle" speed="3.65" length="1.44" shape="816.13,446.15 816.22,447.59"/>
    </edge>
    <edge id=":10196823402_11" function="internal">
        <lane id=":10196823402_11_0" index="0" allow="pedestrian delivery bicycle" speed="3.65" length="3.23" shape="816.22,447.59 815.82,448.39 814.94,448.56 813.58,448.08"/>
    </edge>
    <edge id=":10196823403_0" function="internal">
        <lane id=":10196823403_0_0" index="0" allow="pedestrian delivery bicycle" speed="5.04" length="5.01" shape="843.64,433.52 842.57,432.65 841.49,432.34 840.38,432.58 839.26,433.36"/>
    </edge>
    <edge id=":10196823403_1" function="internal">
        <lane id=":10196823403_1_0" index="0" disallow="tram rail_urban rail rail_electric rail_fast ship container cable_car subway aircraft wheelchair scooter drone" speed="8.94" length="9.40" shape="843.64,433.52 837.25,426.62"/>
    </edge>
    <edge id=":10196823403_2" function="internal">
        <lane id=":10196823403_2_0" index="0" allow="pedestrian delivery bicycle" speed="5.06" length="5.02" shape="837.07,431.03 837.94,429.95 838.26,428.86 838.03,427.75 837.25,426.62"/>
    </edge>
    <edge id=":10196823403_3" function="internal">
        <lane id=":10196823403_3_0" index="0" allow="pedestrian delivery bicycle" speed="3.65" length="4.67" shape="837.07,431.03 838.49,430.79 839.33,431.10 839.59,431.96 839.26,433.36"/>
    </edge>
    <edge id=":1032038493_0" function="internal">
        <lane id=":1032038493_0_0" index="0" allow="pedestrian bicycle" speed="7.25" length="0.97" width="1.80" shape="690.61,851.25 690.51,851.23 690.67,851.35 690.94,851.56 691.18,851.80"/>
    </edge>
    <edge id=":1032038493_1" function="internal">
        <lane id=":1032038493_1_0" index="0" disallow="tram rail_urban rail rail_electric rail_fast ship container cable_car subway aircraft wheelchair scooter drone" speed="8.94" length="8.25" shape="690.61,851.25 688.35,850.33 686.85,849.57 685.41,848.71 683.31,847.45"/>
    </edge>
    <edge id=":1032038493_2" function="internal">
        <lane id=":1032038493_2_0" index="0" allow="pedestrian bicycle" speed="7.25" length="2.55" width="2.00" shape="690.61,851.25 688.72,850.08 688.58,849.79"/>
    </edge>
    <edge id=":1032038493_3" function="internal">
        <lane id=":1032038493_3_0" index="0" disallow="tram rail_urban rail rail_electric rail_fast ship container cable_car subway aircraft wheelchair scooter drone" speed="3.65" length="1.44" shape="690.61,851.25 689.78,850.08"/>
    </edge>
    <edge id=":1032038493_12" function="internal">
        <lane id=":1032038493_12_0" index="0" allow="pedestrian bicycle" speed="7.25" length="5.74" width="2.00" shape="688.58,849.79 688.00,848.60 687.65,846.72 686.87,844.34"/>
    </edge>
    <edge id=":1032038493_13" function="internal">
        <lane id=":1032038493_13_0" index="0" disallow="tram rail_urban rail rail_electric rail_fast ship container cable_car subway aircraft wheelchair scooter drone" speed="3.65" length="3.23" shape="689.78,850.08 689.69,849.18 690.35,848.58 691.76,848.27"/>
    </edge>
    <edge id=":1032038493_4" function="internal">
        <lane id=":1032038493_4_0" index="0" allow="pedestrian bicycle" speed="3.53" length="3.34" width="2.00" shape="684.92,844.68 686.14,845.30 686.87,845.45 687.11,845.13 686.87,844.34"/>
    </edge>
    <edge id=":1032038493_5" function="internal">
        <lane id=":1032038493_5_0" index="0" disallow="tram rail_urban rail rail_electric rail_fast ship container cable_car subway aircraft wheelchair scooter drone" speed="8.94" length="7.74" shape="684.92,844.68 686.89,845.87 688.24,846.68 689.64,847.39 691.76,848.27"/>
    </edge>
    <edge id=":1032038493_6" function="internal">
        <lane id=":1032038493_6_0" index="0" allow="pedestrian bicycle" speed="7.25" length="2.80" width="1.80" shape="684.92,844.68 687.23,846.27"/>
    </edge>
    <edge id=":1032038493_7" function="internal">
        <lane id=":1032038493_7_0" index="0" disallow="tram rail_urban rail rail_electric rail_fast ship container cable_car subway aircraft wheelchair scooter drone" speed="3.65" length="1.44" shape="684.92,844.68 685.55,845.98"/>
    </edge>
    <edge id=":1032038493_14" function="internal">
        <lane id=":1032038493_14_0" index="0" allow="pedestrian bicycle" speed="7.25" length="6.81" width="1.80" shape="687.23,846.27 688.52,847.71 689.58,849.42 691.18,851.80"/>
    </edge>
    <edge id=":1032038493_15" function="internal">
        <lane id=":1032038493_15_0" index="0" disallow="tram rail_urban rail rail_electric rail_fast ship container cable_car subway aircraft wheelchair scooter drone" speed="3.65" length="3.23" shape="685.55,845.98 685.50,846.87 684.75,847.36 683.31,847.45"/>
    </edge>
    <edge id=":1032038493_8" function="internal">
        <lane id=":1032038493_8_0" index="0" disallow="tram rail_urban rail rail_electric rail_fast ship container cable_car subway aircraft wheelchair scooter drone" speed="6.24" length="8.43" shape="685.60,854.43 686.43,852.44 686.33,850.62 685.29,848.95 683.31,847.45"/>
    </edge>
    <edge id=":1032038493_9" function="internal">
        <lane id=":1032038493_9_0" index="0" allow="pedestrian bicycle" speed="7.25" length="10.62" width="2.00" shape="685.60,854.43 686.97,851.74 687.64,849.16 687.61,846.69 686.87,844.34"/>
    </edge>
    <edge id=":1032038493_10" function="internal">
        <lane id=":1032038493_10_0" index="0" disallow="tram rail_urban rail rail_electric rail_fast ship container cable_car subway aircraft wheelchair scooter drone" speed="7.00" length="9.04" shape="685.60,854.43 687.61,851.46 689.30,849.45 690.68,848.38 691.76,848.27"/>
    </edge>
    <edge id=":1032038493_11" function="internal">
        <lane id=":1032038493_11_0" index="0" allow="pedestrian bicycle" speed="5.36" length="7.43" width="1.80" shape="685.60,854.43 687.24,852.20 688.72,851.02 690.03,850.89 691.18,851.80"/>
    </edge>
    <edge id=":1039818859_0" function="internal">
        <lane id=":1039818859_0_0" index="0" disallow="tram rail_urban rail rail_electric rail_fast ship container cable_car subway aircraft wheelchair scooter drone" speed="13.41" length="4.88" shape="639.45,355.67 636.70,351.64"/>
    </edge>
    <edge id=":1039818859_1" function="internal">
        <lane id=":1039818859_1_0" index="0" disallow="tram rail_urban rail rail_electric rail_fast ship container cable_car subway aircraft wheelchair scooter drone" speed="13.41" length="4.65" shape="639.41,349.94 642.03,353.77"/>
    </edge>
    <edge id=":1054485891_0" function="internal">
        <lane id=":1054485891_0_0" index="0" disallow="tram rail_urban rail rail_electric rail_fast ship container cable_car subway aircraft wheelchair scooter drone" speed="8.94" length="2.24" shape="1076.70,973.33 1075.71,971.32"/>
    </edge>
    <edge id=":1054485891_1" function="internal">
        <lane id=":1054485891_1_0" index="0" disallow="tram rail_urban rail rail_electric rail_fast ship container cable_car subway aircraft wheelchair scooter drone" speed="8.94" length="2.18" shape="1078.58,969.92 1079.55,971.87"/>
    </edge>
    <edge id=":1054486161_0" function="internal">
        <lane id=":1054486161_0_0" index="0" allow="pedestrian delivery bicycle" speed="5.56" length="16.92" shape="1168.38,1038.57 1153.82,1047.21"/>
    </edge>
    <edge id=":1054486161_1" function="internal">
        <lane id=":1054486161_1_0" index="0" allow="pedestrian delivery bicycle" speed="3.65" length="1.44" shape="1168.38,1038.57 1166.94,1038.48"/>
    </edge>
    <edge id=":1054486161_4" function="internal">
        <lane id=":1054486161_4_0" index="0" allow="pedestrian delivery bicycle" speed="3.65" length="3.23" shape="1166.94,1038.48 1166.19,1037.99 1166.13,1037.10 1166.76,1035.81"/>
    </edge>
    <edge id=":1054486161_2" function="internal">
        <lane id=":1054486161_2_0" index="0" allow="pedestrian delivery bicycle" speed="5.56" length="17.14" shape="1152.03,1044.56 1166.76,1035.81"/>
    </edge>
    <edge id=":1054486161_3" function="internal">
        <lane id=":1054486161_3_0" index="0" allow="pedestrian delivery bicycle" speed="3.65" length="1.44" shape="1152.03,1044.56 1153.47,1044.55"/>
    </edge>
    <edge id=":1054486161_5" function="internal">
        <lane id=":1054486161_5_0" index="0" allow="pedestrian delivery bicycle" speed="3.65" length="3.23" shape="1153.47,1044.55 1154.25,1044.99 1154.37,1045.87 1153.82,1047.21"/>
    </edge>
    <edge id=":1054486253_0" function="internal">
        <lane id=":1054486253_0_0" index="0" disallow="tram rail_urban rail rail_electric rail_fast ship container cable_car subway aircraft wheelchair scooter drone" speed="8.94" length="9.57" shape="1093.63,1008.42 1089.37,999.84"/>
    </edge>
    <edge id=":1054486253_1" function="internal">
        <lane id=":1054486253_1_0" index="0" allow="pedestrian delivery bicycle" speed="6.89" length="3.35" shape="1093.63,1008.42 1092.71,1005.78 1092.75,1005.22"/>
    </edge>
    <edge id=":1054486253_7" function="internal">
        <lane id=":1054486253_7_0" index="0" allow="pedestrian delivery bicycle" speed="6.89" length="6.91" shape="1092.75,1005.22 1092.88,1003.48 1094.11,1001.51 1096.42,999.87"/>
    </edge>
    <edge id=":1054486253_2" function="internal">
        <lane id=":1054486253_2_0" index="0" allow="pedestrian delivery bicycle" speed="5.08" length="5.09" shape="1097.90,1002.71 1096.74,1003.53 1096.11,1004.51 1096.02,1005.65 1096.47,1006.94"/>
    </edge>