<?xml version="1.0" encoding="UTF-8"?>

<!-- generated on 2024-12-04 15:43:27 by Eclipse SUMO netconvert Version 1.20.0
<configuration xmlns:xsi="http://www.w3.org/2001/XMLSchema-instance" xsi:noNamespaceSchemaLocation="http://sumo.dlr.de/xsd/netconvertConfiguration.xsd">

    <input>
        <osm-files value="C:\Users\asus\Desktop\AIP\Project Code\urban-mobility-simulation\backend\controllers\2024-12-04T20-43-26-302Z\map.osm"/>
    </input>

    <output>
        <output-file value="map.net.xml"/>
    </output>

    <projection>
        <proj.utm value="true"/>
    </projection>

</configuration>
-->

<net version="1.20" junctionCornerDetail="5" limitTurnSpeed="5.50" xmlns:xsi="http://www.w3.org/2001/XMLSchema-instance" xsi:noNamespaceSchemaLocation="http://sumo.dlr.de/xsd/net_file.xsd">

    <location netOffset="-629776.49,-4833838.64" convBoundary="0.00,0.00,1922.33,2977.29" origBoundary="-79.413704,43.637641,-79.352749,43.672963" projParameter="+proj=utm +zone=17 +ellps=WGS84 +datum=WGS84 +units=m +no_defs"/>

    <type id="highway.footway" priority="1" numLanes="1" speed="2.78" allow="pedestrian" oneway="1" width="2.00"/>
    <type id="highway.path" priority="1" numLanes="1" speed="5.56" allow="pedestrian bicycle" oneway="0" width="2.00"/>
    <type id="highway.pedestrian" priority="1" numLanes="1" speed="2.78" allow="pedestrian" oneway="1" width="2.00"/>
    <type id="highway.primary" priority="12" numLanes="2" speed="27.78" disallow="tram rail_urban rail rail_electric rail_fast ship container cable_car subway aircraft wheelchair scooter drone" oneway="0"/>
    <type id="highway.residential" priority="3" numLanes="1" speed="13.89" disallow="tram rail_urban rail rail_electric rail_fast ship container cable_car subway aircraft wheelchair scooter drone" oneway="0"/>
    <type id="highway.secondary" priority="11" numLanes="1" speed="27.78" disallow="tram rail_urban rail rail_electric rail_fast ship container cable_car subway aircraft wheelchair scooter drone" oneway="0"/>
    <type id="highway.secondary_link" priority="6" numLanes="1" speed="22.22" disallow="tram rail_urban rail rail_electric rail_fast ship container cable_car subway aircraft wheelchair scooter drone" oneway="0"/>
    <type id="highway.service" priority="1" numLanes="1" speed="5.56" allow="pedestrian delivery bicycle" oneway="0"/>
    <type id="highway.steps" priority="1" numLanes="1" speed="1.39" allow="pedestrian" oneway="1" width="2.00"/>
    <type id="highway.tertiary" priority="10" numLanes="1" speed="22.22" disallow="tram rail_urban rail rail_electric rail_fast ship container cable_car subway aircraft wheelchair scooter drone" oneway="0"/>
    <type id="highway.unclassified" priority="4" numLanes="1" speed="13.89" disallow="tram rail_urban rail rail_electric rail_fast ship container cable_car subway aircraft wheelchair scooter drone" oneway="0"/>
    <type id="railway.subway" priority="18" numLanes="1" speed="27.78" allow="subway" oneway="1"/>
    <type id="railway.tram" priority="17" numLanes="1" speed="13.89" allow="tram" oneway="1"/>

    <edge id=":10040846912_0" function="internal">
        <lane id=":10040846912_0_0" index="0" disallow="tram rail_urban rail rail_electric rail_fast ship container cable_car subway aircraft wheelchair scooter drone" speed="8.33" length="1.07" shape="1016.17,747.08 1016.42,746.04"/>
    </edge>
    <edge id=":10040846912_1" function="internal">
        <lane id=":10040846912_1_0" index="0" disallow="tram rail_urban rail rail_electric rail_fast ship container cable_car subway aircraft wheelchair scooter drone" speed="8.33" length="1.29" shape="1013.37,745.05 1013.06,746.30"/>
    </edge>
    <edge id=":11068823291_0" function="internal">
        <lane id=":11068823291_0_0" index="0" allow="pedestrian delivery bicycle" speed="5.56" length="0.10" shape="370.06,790.27 370.06,790.27"/>
    </edge>
    <edge id=":11068823293_0" function="internal">
        <lane id=":11068823293_0_0" index="0" allow="pedestrian delivery bicycle" speed="5.56" length="5.41" shape="422.11,840.77 420.61,845.97"/>
    </edge>
    <edge id=":11068823293_1" function="internal">
        <lane id=":11068823293_1_0" index="0" allow="pedestrian delivery bicycle" speed="3.65" length="1.44" shape="422.11,840.77 421.01,841.70"/>
    </edge>
    <edge id=":11068823293_4" function="internal">
        <lane id=":11068823293_4_0" index="0" allow="pedestrian delivery bicycle" speed="3.65" length="3.23" shape="421.01,841.70 420.13,841.86 419.47,841.26 419.04,839.88"/>
    </edge>
    <edge id=":11068823293_2" function="internal">
        <lane id=":11068823293_2_0" index="0" allow="pedestrian delivery bicycle" speed="5.56" length="5.42" shape="417.54,845.09 419.04,839.88"/>
    </edge>
    <edge id=":11068823293_3" function="internal">
        <lane id=":11068823293_3_0" index="0" allow="pedestrian delivery bicycle" speed="3.65" length="1.44" shape="417.54,845.09 418.64,844.16"/>
    </edge>
    <edge id=":11068823293_5" function="internal">
        <lane id=":11068823293_5_0" index="0" allow="pedestrian delivery bicycle" speed="3.65" length="3.23" shape="418.64,844.16 419.51,843.99 420.17,844.60 420.61,845.97"/>
    </edge>
    <edge id=":11068823300_0" function="internal">
        <lane id=":11068823300_0_0" index="0" allow="pedestrian delivery bicycle" speed="5.56" length="4.92" shape="526.42,945.51 524.95,950.20"/>
    </edge>
    <edge id=":11068823300_1" function="internal">
        <lane id=":11068823300_1_0" index="0" allow="pedestrian delivery bicycle" speed="3.65" length="4.67" shape="526.42,945.51 525.30,946.41 524.41,946.56 523.77,945.93 523.37,944.55"/>
    </edge>
    <edge id=":11068823300_2" function="internal">
        <lane id=":11068823300_2_0" index="0" allow="pedestrian delivery bicycle" speed="5.56" length="4.76" shape="521.94,949.09 523.37,944.55"/>
    </edge>
    <edge id=":11068823300_3" function="internal">
        <lane id=":11068823300_3_0" index="0" allow="pedestrian delivery bicycle" speed="3.65" length="4.68" shape="521.94,949.09 523.11,948.24 524.00,948.14 524.61,948.80 524.95,950.20"/>
    </edge>
    <edge id=":11069916876_0" function="internal">
        <lane id=":11069916876_0_0" index="0" allow="pedestrian delivery bicycle" speed="5.56" length="5.00" shape="598.83,969.13 594.06,967.63"/>
        <lane id=":11069916876_0_1" index="1" allow="pedestrian delivery bicycle" speed="5.56" length="5.00" shape="599.79,966.08 595.02,964.58"/>
    </edge>
    <edge id=":11069916876_2" function="internal">
        <lane id=":11069916876_2_0" index="0" allow="pedestrian delivery bicycle" speed="3.65" length="1.44" shape="599.79,966.08 598.89,964.96"/>
    </edge>
    <edge id=":11069916876_5" function="internal">
        <lane id=":11069916876_5_0" index="0" allow="pedestrian delivery bicycle" speed="3.65" length="3.23" shape="598.89,964.96 598.74,964.07 599.37,963.43 600.75,963.03"/>
    </edge>
    <edge id=":11069916876_3" function="internal">
        <lane id=":11069916876_3_0" index="0" allow="pedestrian delivery bicycle" speed="5.56" length="5.00" shape="595.98,961.53 600.75,963.03"/>
    </edge>
    <edge id=":11069916876_4" function="internal">
        <lane id=":11069916876_4_0" index="0" allow="pedestrian delivery bicycle" speed="3.65" length="1.44" shape="595.98,961.53 596.89,962.65"/>
    </edge>
    <edge id=":11069916876_6" function="internal">
        <lane id=":11069916876_6_0" index="0" allow="pedestrian delivery bicycle" speed="3.65" length="3.23" shape="596.89,962.65 597.03,963.53 596.41,964.17 595.02,964.58"/>
    </edge>
    <edge id=":11209519189_0" function="internal">
        <lane id=":11209519189_0_0" index="0" allow="tram" speed="13.89" length="9.46" shape="1047.46,660.97 1038.44,658.12"/>
    </edge>
    <edge id=":11209519189_1" function="internal">
        <lane id=":11209519189_1_0" index="0" disallow="tram rail_urban rail rail_electric rail_fast ship container cable_car subway aircraft wheelchair scooter drone" speed="8.33" length="1.72" shape="1044.01,661.42 1043.45,663.05"/>
    </edge>
    <edge id=":11209519189_2" function="internal">
        <lane id=":11209519189_2_0" index="0" disallow="tram rail_urban rail rail_electric rail_fast ship container cable_car subway aircraft wheelchair scooter drone" speed="8.33" length="1.71" shape="1040.42,662.03 1040.97,660.41"/>
    </edge>
    <edge id=":11209519191_0" function="internal">
        <lane id=":11209519191_0_0" index="0" allow="tram" speed="13.89" length="5.17" shape="957.94,632.15 953.02,630.56"/>
    </edge>
    <edge id=":11209519192_0" function="internal">
        <lane id=":11209519192_0_0" index="0" allow="tram" speed="13.89" length="13.52" shape="952.83,630.50 939.97,626.34"/>
    </edge>
    <edge id=":11209519192_1" function="internal">
        <lane id=":11209519192_1_0" index="0" disallow="tram rail_urban rail rail_electric rail_fast ship container cable_car subway aircraft wheelchair scooter drone" speed="11.11" length="1.41" shape="951.18,631.81 950.74,633.15"/>
        <lane id=":11209519192_1_1" index="1" disallow="tram rail_urban rail rail_electric rail_fast ship container cable_car subway aircraft wheelchair scooter drone" speed="11.11" length="1.41" shape="948.15,630.81 947.70,632.15"/>
    </edge>
    <edge id=":11209519192_3" function="internal">
        <lane id=":11209519192_3_0" index="0" disallow="tram rail_urban rail rail_electric rail_fast ship container cable_car subway aircraft wheelchair scooter drone" speed="11.11" length="1.42" shape="941.63,630.14 942.07,628.80"/>
        <lane id=":11209519192_3_1" index="1" disallow="tram rail_urban rail rail_electric rail_fast ship container cable_car subway aircraft wheelchair scooter drone" speed="11.11" length="1.42" shape="944.67,631.15 945.11,629.80"/>
    </edge>
    <edge id=":11209519193_0" function="internal">
        <lane id=":11209519193_0_0" index="0" allow="tram" speed="13.89" length="3.64" shape="939.64,626.23 936.18,625.11"/>
    </edge>
    <edge id=":11383110162_0" function="internal">
        <lane id=":11383110162_0_0" index="0" allow="pedestrian delivery bicycle" speed="5.56" length="0.11" shape="1002.09,946.53 1002.06,946.64"/>
    </edge>
    <edge id=":11383110162_1" function="internal">
        <lane id=":11383110162_1_0" index="0" allow="pedestrian delivery bicycle" speed="5.56" length="0.32" shape="998.98,945.76 999.08,945.45"/>
    </edge>
    <edge id=":11383110163_0" function="internal">
        <lane id=":11383110163_0_0" index="0" allow="pedestrian delivery bicycle" speed="5.56" length="0.29" shape="998.20,960.20 998.12,960.48"/>
    </edge>
    <edge id=":11383110163_1" function="internal">
        <lane id=":11383110163_1_0" index="0" allow="pedestrian delivery bicycle" speed="5.56" length="0.17" shape="995.08,959.49 995.13,959.33"/>
    </edge>
    <edge id=":11393673373_0" function="internal">
        <lane id=":11393673373_0_0" index="0" allow="pedestrian bicycle" speed="5.56" length="0.30" width="2.00" shape="973.46,646.24 973.37,646.52"/>
    </edge>
    <edge id=":11393673373_1" function="internal">
        <lane id=":11393673373_1_0" index="0" allow="pedestrian bicycle" speed="5.56" length="0.30" width="2.00" shape="971.46,645.93 971.55,645.65"/>
    </edge>
    <edge id=":11393673374_0" function="internal">
        <lane id=":11393673374_0_0" index="0" allow="pedestrian bicycle" speed="2.89" length="2.92" width="2.00" shape="966.98,667.66 966.28,668.24 965.73,668.33 965.33,667.95 965.06,667.09"/>
    </edge>
    <edge id=":11454143362_0" function="internal">
        <lane id=":11454143362_0_0" index="0" disallow="pedestrian tram rail_urban rail rail_electric rail_fast ship container cable_car subway aircraft wheelchair scooter drone" speed="22.22" length="5.01" shape="281.21,685.14 276.47,683.55"/>
    </edge>
    <edge id=":11454143362_1" function="internal">
        <lane id=":11454143362_1_0" index="0" disallow="pedestrian tram rail_urban rail rail_electric rail_fast ship container cable_car subway aircraft wheelchair scooter drone" speed="22.22" length="5.00" shape="277.49,680.52 282.23,682.11"/>
    </edge>
    <edge id=":11730526064_0" function="internal">
        <lane id=":11730526064_0_0" index="0" disallow="tram rail_urban rail rail_electric rail_fast ship container cable_car subway aircraft wheelchair scooter drone" speed="3.65" length="4.67" shape="380.76,989.03 379.62,989.92 378.74,990.05 378.10,989.43 377.71,988.04"/>
    </edge>
    <edge id=":118410163_0" function="internal">
        <lane id=":118410163_0_0" index="0" allow="pedestrian delivery bicycle" speed="4.29" length="3.37" shape="511.34,581.33 510.52,580.89 509.62,580.30 508.85,579.95 508.40,580.22"/>
    </edge>
    <edge id=":118410163_1" function="internal">
        <lane id=":118410163_1_0" index="0" disallow="tram rail_urban rail rail_electric rail_fast ship container cable_car subway aircraft wheelchair scooter drone" speed="3.65" length="4.67" shape="512.31,578.29 511.42,577.16 511.28,576.27 511.91,575.63 513.29,575.24"/>
    </edge>
    <edge id=":118410163_2" function="internal">
        <lane id=":118410163_2_0" index="0" allow="pedestrian delivery bicycle" speed="7.62" length="12.93" shape="505.34,579.30 506.93,575.44 508.95,572.97 511.39,571.89 514.27,572.19"/>
        <lane id=":118410163_2_1" index="1" allow="pedestrian delivery bicycle" speed="6.84" length="10.23" shape="505.34,579.30 506.52,576.78 508.24,575.27 510.50,574.75 513.29,575.24"/>
    </edge>
    <edge id=":118411313_0" function="internal">
        <lane id=":118411313_0_0" index="0" allow="delivery bicycle" speed="5.56" length="5.78" shape="625.17,804.11 625.17,802.66 624.30,801.79 623.17,800.91 622.44,799.40"/>
    </edge>
    <edge id=":118420241_0" function="internal">
        <lane id=":118420241_0_0" index="0" disallow="tram rail_urban rail rail_electric rail_fast ship container cable_car subway aircraft wheelchair scooter drone" speed="13.89" length="5.14" shape="353.06,806.96 348.55,804.50"/>
    </edge>
    <edge id=":118420241_1" function="internal">
        <lane id=":118420241_1_0" index="0" disallow="tram rail_urban rail rail_electric rail_fast ship container cable_car subway aircraft wheelchair scooter drone" speed="13.89" length="5.23" shape="350.05,801.67 354.64,804.18"/>
    </edge>
    <edge id=":12281517686_0" function="internal">
        <lane id=":12281517686_0_0" index="0" disallow="tram rail_urban rail rail_electric rail_fast ship container cable_car subway aircraft wheelchair scooter drone" speed="13.89" length="4.57" shape="419.27,852.66 414.90,851.31"/>
    </edge>
    <edge id=":12281517686_1" function="internal">
        <lane id=":12281517686_1_0" index="0" allow="pedestrian delivery bicycle" speed="6.28" length="2.01" shape="419.27,852.66 417.80,851.82 417.65,851.54"/>
    </edge>
    <edge id=":12281517686_7" function="internal">
        <lane id=":12281517686_7_0" index="0" allow="pedestrian delivery bicycle" speed="6.28" length="6.31" shape="417.65,851.54 417.01,850.33 416.88,848.21 417.43,845.45"/>
    </edge>
    <edge id=":12281517686_2" function="internal">
        <lane id=":12281517686_2_0" index="0" allow="pedestrian delivery bicycle" speed="4.38" length="3.51" shape="420.51,846.33 420.20,847.21 419.87,848.22 419.77,849.10 420.16,849.59"/>
    </edge>
    <edge id=":12281517686_3" function="internal">
        <lane id=":12281517686_3_0" index="0" allow="pedestrian delivery bicycle" speed="6.25" length="8.47" shape="420.51,846.33 419.49,848.98 418.21,850.69 416.68,851.47 414.90,851.31"/>
    </edge>
    <edge id=":12281517686_4" function="internal">
        <lane id=":12281517686_4_0" index="0" allow="pedestrian delivery bicycle" speed="3.65" length="4.67" shape="420.51,846.33 419.41,847.27 418.53,847.43 417.87,846.82 417.43,845.45"/>
    </edge>
    <edge id=":12281517686_5" function="internal">
        <lane id=":12281517686_5_0" index="0" allow="pedestrian delivery bicycle" speed="4.30" length="3.45" shape="415.89,848.27 416.50,848.09 416.92,847.34 417.21,846.34 417.43,845.45"/>
    </edge>
    <edge id=":12281517686_6" function="internal">
        <lane id=":12281517686_6_0" index="0" disallow="tram rail_urban rail rail_electric rail_fast ship container cable_car subway aircraft wheelchair scooter drone" speed="13.89" length="4.47" shape="415.89,848.27 420.16,849.59"/>
    </edge>
    <edge id=":12306450218_0" function="internal">
        <lane id=":12306450218_0_0" index="0" allow="pedestrian delivery bicycle" speed="4.91" length="4.42" shape="434.18,844.27 432.69,843.94 431.53,843.94 430.70,844.28 430.21,844.96"/>
    </edge>
    <edge id=":12306450218_1" function="internal">
        <lane id=":12306450218_1_0" index="0" allow="pedestrian delivery bicycle" speed="5.56" length="10.55" shape="434.18,844.27 431.53,843.04 429.98,841.27 429.53,838.97 430.18,836.12"/>
    </edge>
    <edge id=":12306450218_2" function="internal">
        <lane id=":12306450218_2_0" index="0" allow="pedestrian delivery bicycle" speed="3.65" length="4.67" shape="434.18,844.27 433.26,843.16 433.11,842.28 433.72,841.63 435.10,841.20"/>
    </edge>
    <edge id=":12306450218_3" function="internal">
        <lane id=":12306450218_3_0" index="0" allow="pedestrian delivery bicycle" speed="4.96" length="5.09" shape="433.17,837.27 432.86,838.64 433.07,839.76 433.82,840.61 435.10,841.20"/>
    </edge>
    <edge id=":12306450218_4" function="internal">
        <lane id=":12306450218_4_0" index="0" allow="pedestrian delivery bicycle" speed="5.56" length="8.24" shape="433.17,837.27 430.21,844.96"/>
    </edge>
    <edge id=":12306450218_5" function="internal">
        <lane id=":12306450218_5_0" index="0" allow="pedestrian delivery bicycle" speed="3.65" length="4.67" shape="433.17,837.27 431.99,838.10 431.10,838.19 430.50,837.52 430.18,836.12"/>
    </edge>
    <edge id=":12306450218_6" function="internal">
        <lane id=":12306450218_6_0" index="0" allow="pedestrian delivery bicycle" speed="5.56" length="8.24" shape="427.22,843.81 430.18,836.12"/>
    </edge>
    <edge id=":12306450218_7" function="internal">
        <lane id=":12306450218_7_0" index="0" allow="pedestrian delivery bicycle" speed="5.56" length="9.26" shape="427.22,843.81 428.36,841.98 430.05,840.93 432.30,840.67 435.10,841.20"/>
    </edge>
    <edge id=":12306450218_8" function="internal">
        <lane id=":12306450218_8_0" index="0" allow="pedestrian delivery bicycle" speed="3.65" length="4.67" shape="427.22,843.81 428.40,842.98 429.29,842.89 429.89,843.55 430.21,844.96"/>
    </edge>
    <edge id=":1305290533_0" function="internal">
        <lane id=":1305290533_0_0" index="0" disallow="tram rail_urban rail rail_electric rail_fast ship container cable_car subway aircraft wheelchair scooter drone" speed="11.11" length="4.15" shape="656.13,755.11 654.90,759.07"/>
        <lane id=":1305290533_0_1" index="1" disallow="tram rail_urban rail rail_electric rail_fast ship container cable_car subway aircraft wheelchair scooter drone" speed="11.11" length="4.15" shape="653.07,754.16 651.84,758.12"/>
    </edge>
    <edge id=":1305290533_2" function="internal">
        <lane id=":1305290533_2_0" index="0" disallow="tram rail_urban rail rail_electric rail_fast ship container cable_car subway aircraft wheelchair scooter drone" speed="11.11" length="4.14" shape="645.73,756.22 646.96,752.27"/>
        <lane id=":1305290533_2_1" index="1" disallow="tram rail_urban rail rail_electric rail_fast ship container cable_car subway aircraft wheelchair scooter drone" speed="11.11" length="4.14" shape="648.79,757.17 650.02,753.21"/>
    </edge>
    <edge id=":1305290539_0" function="internal">
        <lane id=":1305290539_0_0" index="0" allow="pedestrian delivery bicycle" speed="5.56" length="5.10" shape="794.75,685.13 789.78,683.98"/>
    </edge>
    <edge id=":1305290548_0" function="internal">
        <lane id=":1305290548_0_0" index="0" disallow="tram rail_urban rail rail_electric rail_fast ship container cable_car subway aircraft wheelchair scooter drone" speed="11.11" length="3.96" shape="651.43,770.25 650.25,774.03"/>
        <lane id=":1305290548_0_1" index="1" disallow="tram rail_urban rail rail_electric rail_fast ship container cable_car subway aircraft wheelchair scooter drone" speed="11.11" length="3.96" shape="648.37,769.30 647.20,773.08"/>
    </edge>
    <edge id=":1305290548_2" function="internal">
        <lane id=":1305290548_2_0" index="0" disallow="tram rail_urban rail rail_electric rail_fast ship container cable_car subway aircraft wheelchair scooter drone" speed="11.11" length="3.95" shape="641.09,771.18 642.26,767.41"/>
        <lane id=":1305290548_2_1" index="1" disallow="tram rail_urban rail rail_electric rail_fast ship container cable_car subway aircraft wheelchair scooter drone" speed="11.11" length="3.95" shape="644.14,772.13 645.31,768.36"/>
    </edge>
    <edge id=":1305290551_0" function="internal">
        <lane id=":1305290551_0_0" index="0" allow="pedestrian delivery bicycle" speed="5.33" length="4.38" shape="703.65,659.91 702.86,659.15 701.94,658.74 700.88,658.69 699.69,658.98"/>
    </edge>
    <edge id=":1305290551_1" function="internal">
        <lane id=":1305290551_1_0" index="0" allow="pedestrian delivery bicycle" speed="6.27" length="10.23" shape="703.65,659.91 701.47,656.68 700.49,654.16 700.72,652.35 702.15,651.24"/>
    </edge>
    <edge id=":1305290551_2" function="internal">
        <lane id=":1305290551_2_0" index="0" disallow="tram rail_urban rail rail_electric rail_fast ship container cable_car subway aircraft wheelchair scooter drone" speed="11.11" length="5.00" shape="704.37,657.24 699.69,658.98"/>
        <lane id=":1305290551_2_1" index="1" disallow="tram rail_urban rail rail_electric rail_fast ship container cable_car subway aircraft wheelchair scooter drone" speed="11.11" length="5.00" shape="703.26,654.24 698.58,655.98"/>
    </edge>
    <edge id=":1305290551_4" function="internal">
        <lane id=":1305290551_4_0" index="0" disallow="tram rail_urban rail rail_electric rail_fast ship container cable_car subway aircraft wheelchair scooter drone" speed="11.11" length="5.01" shape="696.34,649.98 701.04,648.24"/>
        <lane id=":1305290551_4_1" index="1" disallow="tram rail_urban rail rail_electric rail_fast ship container cable_car subway aircraft wheelchair scooter drone" speed="11.11" length="5.01" shape="697.46,652.98 702.15,651.24"/>
    </edge>
    <edge id=":1305290559_0" function="internal">
        <lane id=":1305290559_0_0" index="0" allow="pedestrian delivery bicycle" speed="5.56" length="8.19" shape="781.02,682.97 778.60,682.82 776.94,682.85 775.28,682.97 772.85,683.13"/>
    </edge>
    <edge id=":1305290563_0" function="internal">
        <lane id=":1305290563_0_0" index="0" allow="pedestrian delivery bicycle" speed="5.56" length="5.02" shape="707.16,663.76 706.10,662.71 705.38,661.99 704.70,661.23 703.77,660.07"/>
    </edge>
    <edge id=":1308073690_0" function="internal">
        <lane id=":1308073690_0_0" index="0" disallow="tram rail_urban rail rail_electric rail_fast ship container cable_car subway aircraft wheelchair scooter drone" speed="3.65" length="4.67" shape="1092.86,759.43 1093.76,760.56 1093.89,761.44 1093.27,762.08 1091.88,762.48"/>
    </edge>
    <edge id=":1414163638_0" function="internal">
        <lane id=":1414163638_0_0" index="0" allow="pedestrian delivery bicycle" speed="4.95" length="4.83" shape="593.84,967.56 592.58,967.37 591.55,967.66 590.75,968.43 590.18,969.67"/>
    </edge>
    <edge id=":1414163638_1" function="internal">
        <lane id=":1414163638_1_0" index="0" allow="pedestrian delivery bicycle" speed="8.34" length="17.77" shape="593.84,967.56 588.80,965.36 585.60,962.50 584.23,958.98 584.69,954.81"/>
        <lane id=":1414163638_1_1" index="1" allow="pedestrian delivery bicycle" speed="7.61" length="12.67" shape="594.80,964.51 591.03,962.91 588.60,960.92 587.50,958.53 587.75,955.75"/>
    </edge>
    <edge id=":1414163638_3" function="internal">
        <lane id=":1414163638_3_0" index="0" allow="pedestrian delivery bicycle" speed="3.65" length="4.67" shape="594.80,964.51 593.90,963.39 593.76,962.50 594.38,961.86 595.76,961.46"/>
    </edge>
    <edge id=":1414163638_4" function="internal">
        <lane id=":1414163638_4_0" index="0" allow="pedestrian delivery bicycle" speed="5.00" length="4.87" shape="593.87,957.62 593.65,958.97 593.89,960.06 594.59,960.89 595.76,961.46"/>
    </edge>
    <edge id=":1414163638_5" function="internal">
        <lane id=":1414163638_5_0" index="0" disallow="tram rail_urban rail rail_electric rail_fast ship container cable_car subway aircraft wheelchair scooter drone" speed="11.11" length="12.60" shape="593.87,957.62 590.18,969.67"/>
        <lane id=":1414163638_5_1" index="1" disallow="tram rail_urban rail rail_electric rail_fast ship container cable_car subway aircraft wheelchair scooter drone" speed="11.11" length="12.60" shape="590.81,956.68 587.12,968.74"/>
    </edge>
    <edge id=":1414163638_7" function="internal">
        <lane id=":1414163638_7_0" index="0" disallow="tram rail_urban rail rail_electric rail_fast ship container cable_car subway aircraft wheelchair scooter drone" speed="11.11" length="13.14" shape="577.94,965.94 579.53,962.45 581.31,960.37 583.10,958.30 584.69,954.81"/>
        <lane id=":1414163638_7_1" index="1" disallow="tram rail_urban rail rail_electric rail_fast ship container cable_car subway aircraft wheelchair scooter drone" speed="11.11" length="13.14" shape="581.00,966.87 582.59,963.38 584.37,961.31 586.16,959.23 587.75,955.75"/>
    </edge>
    <edge id=":1414163638_9" function="internal">
        <lane id=":1414163638_9_0" index="0" allow="pedestrian delivery bicycle" speed="8.24" length="4.34" shape="584.06,967.80 585.84,963.98 585.93,963.90"/>
    </edge>
    <edge id=":1414163638_10" function="internal">
        <lane id=":1414163638_10_0" index="0" allow="pedestrian delivery bicycle" speed="8.24" length="10.87" shape="585.93,963.90 588.38,961.64 591.69,960.80 595.76,961.46"/>
    </edge>
    <edge id=":1414163640_0" function="internal">
        <lane id=":1414163640_0_0" index="0" allow="pedestrian delivery bicycle" speed="3.65" length="4.67" shape="645.84,977.25 646.75,978.37 646.89,979.25 646.26,979.90 644.88,980.30"/>
    </edge>
    <edge id=":1551002988_0" function="internal">
        <lane id=":1551002988_0_0" index="0" disallow="tram rail_urban rail rail_electric rail_fast ship container cable_car subway aircraft wheelchair scooter drone" speed="5.56" length="6.28" shape="656.49,767.74 654.71,767.44 653.28,767.72 652.21,768.60 651.49,770.06"/>
    </edge>
    <edge id=":1551002988_1" function="internal">
        <lane id=":1551002988_1_0" index="0" disallow="tram rail_urban rail rail_electric rail_fast ship container cable_car subway aircraft wheelchair scooter drone" speed="8.12" length="14.69" shape="656.49,767.74 652.24,765.95 649.53,763.62 648.36,760.76 648.73,757.36"/>
    </edge>
    <edge id=":1551002988_2" function="internal">
        <lane id=":1551002988_2_0" index="0" disallow="tram rail_urban rail rail_electric rail_fast ship container cable_car subway aircraft wheelchair scooter drone" speed="3.65" length="1.44" shape="656.49,767.74 655.58,766.63"/>
    </edge>
    <edge id=":1551002988_11" function="internal">
        <lane id=":1551002988_11_0" index="0" disallow="tram rail_urban rail rail_electric rail_fast ship container cable_car subway aircraft wheelchair scooter drone" speed="3.65" length="3.23" shape="655.58,766.63 655.43,765.74 656.04,765.09 657.42,764.68"/>
    </edge>
    <edge id=":1551002988_3" function="internal">
        <lane id=":1551002988_3_0" index="0" disallow="tram rail_urban rail rail_electric rail_fast ship container cable_car subway aircraft wheelchair scooter drone" speed="5.75" length="6.85" shape="654.84,759.26 654.51,761.19 654.83,762.73 655.80,763.89 657.42,764.68"/>
    </edge>
    <edge id=":1551002988_4" function="internal">
        <lane id=":1551002988_4_0" index="0" disallow="tram rail_urban rail rail_electric rail_fast ship container cable_car subway aircraft wheelchair scooter drone" speed="11.11" length="11.31" shape="654.84,759.26 651.49,770.06"/>
        <lane id=":1551002988_4_1" index="1" disallow="tram rail_urban rail rail_electric rail_fast ship container cable_car subway aircraft wheelchair scooter drone" speed="11.11" length="11.31" shape="651.78,758.31 648.43,769.11"/>
    </edge>
    <edge id=":1551002988_6" function="internal">
        <lane id=":1551002988_6_0" index="0" disallow="tram rail_urban rail rail_electric rail_fast ship container cable_car subway aircraft wheelchair scooter drone" speed="3.65" length="1.44" shape="651.78,758.31 650.66,759.22"/>
    </edge>
    <edge id=":1551002988_12" function="internal">
        <lane id=":1551002988_12_0" index="0" disallow="tram rail_urban rail rail_electric rail_fast ship container cable_car subway aircraft wheelchair scooter drone" speed="3.65" length="3.23" shape="650.66,759.22 649.78,759.36 649.14,758.74 648.73,757.36"/>
    </edge>
    <edge id=":1551002988_7" function="internal">
        <lane id=":1551002988_7_0" index="0" disallow="tram rail_urban rail rail_electric rail_fast ship container cable_car subway aircraft wheelchair scooter drone" speed="11.11" length="11.31" shape="642.32,767.22 645.67,756.41"/>
        <lane id=":1551002988_7_1" index="1" disallow="tram rail_urban rail rail_electric rail_fast ship container cable_car subway aircraft wheelchair scooter drone" speed="11.11" length="11.31" shape="645.37,768.17 648.73,757.36"/>
    </edge>
    <edge id=":1551002988_9" function="internal">
        <lane id=":1551002988_9_0" index="0" disallow="tram rail_urban rail rail_electric rail_fast ship container cable_car subway aircraft wheelchair scooter drone" speed="8.00" length="3.07" shape="645.37,768.17 646.89,765.50"/>
    </edge>
    <edge id=":1551002988_10" function="internal">