<?xml version="1.0" encoding="UTF-8"?>

<!-- generated on 2024-12-04 15:43:30.825511 by randomTrips.py v1_20_0+0002-343658e7c64
<configuration>
    <net-file value="map.net.xml"/>
    <route-file value="map.rou.xml"/>
    <end value="100.0"/>
</configuration>
-->

<!-- generated on 2024-12-04 15:43:30 by Eclipse SUMO duarouter Version 1.20.0
<configuration xmlns:xsi="http://www.w3.org/2001/XMLSchema-instance" xsi:noNamespaceSchemaLocation="http://sumo.dlr.de/xsd/duarouterConfiguration.xsd">

    <input>
        <net-file value="map.net.xml"/>
        <route-files value="trips.trips.xml"/>
    </input>

    <output>
        <output-file value="map.rou.xml"/>
        <alternatives-output value="NUL"/>
    </output>

    <time>
        <begin value="0"/>
        <end value="100.0"/>
    </time>

    <report>
        <no-warnings value="true"/>
        <ignore-errors value="true"/>
        <no-step-log value="true"/>
    </report>

</configuration>
-->

<routes xmlns:xsi="http://www.w3.org/2001/XMLSchema-instance" xsi:noNamespaceSchemaLocation="http://sumo.dlr.de/xsd/routes_file.xsd">
    <vehicle id="0" depart="0.00">
        <route edges="33651795#1 33651795#2 33651795#3 33651795#4 33651796#0 33651796#1 33651796#2 33651797#0 33651797#1 24781234#0 24781234#1 24781234#2 24781234#3 24781234#4 -458503768#5 -458503768#4 -458503768#3 -458503768#2 -458503768#1 -458503768#0 -25795349#9 -25795349#8 -25795349#7 -25795349#6 -25795349#5 -25795349#4 -25795349#3 553564813#3 553564813#4 553564813#5 553564813#6 33651840#0 33651840#1 33651840#2 -35155371#4 -35155371#3 -35155371#2 -35155371#1 -35155371#0 -233396010#3 -233396010#2 -233396010#1 -233396010#0 -237888211#4 -237888211#3 -237888211#2 -237888211#1 -237888211#0 -233396011 237888210 1333144881 -1333144880 -1333144882 -1333144883"/>
    </vehicle>
    <vehicle id="1" depart="1.00">
        <route edges="-446810243#1 -446810243#0 446810243#0 446810243#1 446810243#2 446784162#0 446784162#1 35155371#0 35155371#1 35155371#2 35155371#3 35155371#4 -35155371#4 -35155371#3 -35155371#2"/>
    </vehicle>
    <vehicle id="2" depart="2.00">
        <route edges="35159935#3 35159935#4 -35159935#4 -35159935#3 -35159935#2 -35159935#1 -35159935#0 -458503768#5 -458503768#4 -458503768#3 -458503768#2 -458503768#1 -458503768#0 -25795349#9 -25795349#8 -25795349#7 -25795349#6 -25795349#5 -25795349#4 -25795349#3 553564813#3 553564813#4 553564813#5 553564813#6 33651840#0 33651840#1"/>
    </vehicle>
    <vehicle id="5" depart="5.00">
        <route edges="-35155371#0 -233396010#3 -233396010#2 -233396010#1 -233396010#0 -237888211#4 -237888211#3 -237888211#2 -237888211#1 -237888211#0 -233396011 237888210 1333144881 -1333144880 -1333144882 -1333144883 -237888004 -1186126655#1 -1186126655#0 237887998"/>
    </vehicle>
    <vehicle id="7" depart="7.00">
        <route edges="33651795#4 33651796#0 33651796#1 33651796#2 33651797#0 33651797#1 24781234#0 24781234#1 24781234#2"/>
    </vehicle>
    <vehicle id="10" depart="10.00">
        <route edges="458503768#5 -458503768#5 -458503768#4 -458503768#3 -458503768#2 -458503768#1 -458503768#0 -25795349#9 -25795349#8 -25795349#7 -25795349#6 -25795349#5 -25795349#4 -25795349#3 553564813#3 553564813#4 553564813#5 553564813#6 33651840#0 33651840#1 33651840#2 -35155371#4 -35155371#3 -35155371#2 -35155371#1 -35155371#0 35155371#0"/>
    </vehicle>
    <vehicle id="12" depart="12.00">
        <route edges="5686883#2 5686883#3 -5686883#3 -5686883#2 -4674805#3 -4674805#2 -4674805#1 -4674805#0 4652071#3 4652071#4 4652071#5 4652071#6 4652071#7 -4652070#1 -4652070#0 4652070#0 4652070#1 -4652071#7 -4652071#6 -4652071#5 -4652071#4 -4652071#3"/>
    </vehicle>
    <vehicle id="13" depart="13.00">
        <route edges="-24781234#2 -24781234#1 -24781234#0 24781234#0 24781234#1 24781234#2 24781234#3 24781234#4 -24781234#4"/>
    </vehicle>
    <vehicle id="15" depart="15.00">
        <route edges="458503768#5 35159935#0 35159935#1 35159935#2"/>
    </vehicle>
    <vehicle id="20" depart="20.00">
        <route edges="35155371#0 35155371#1 35155371#2 35155371#3 35155371#4 -35155371#4 -35155371#3 -35155371#2 -35155371#1 -35155371#0 -233396010#3 -233396010#2 -233396010#1 -233396010#0 -237888211#4 -237888211#3 -237888211#2 -237888211#1 -237888211#0 -233396011"/>
    </vehicle>
    <vehicle id="22" depart="22.00">
        <route edges="-237888211#4 -237888211#3 -237888211#2 237888211#2 237888211#3 237888211#4 233396010#0 233396010#1 233396010#2 233396010#3 35155371#0 35155371#1 35155371#2 35155371#3 35155371#4 -35155371#4"/>
    </vehicle>
    <vehicle id="23" depart="23.00">
        <route edges="-24781234#4 -24781234#3 -24781234#2 -24781234#1 -24781234#0 24781234#0 24781234#1 24781234#2 24781234#3 24781234#4 -458503768#5 -458503768#4 -458503768#3 -458503768#2 -458503768#1 -458503768#0 458503767#0 458503767#1 458503767#2 458503767#3 458503767#4 -458503767#4 -458503767#3 -458503767#2 -458503767#1"/>
    </vehicle>
    <vehicle id="27" depart="27.00">
        <route edges="33651795#3 33651795#4 33651796#0 33651796#1 33651796#2 33651797#0 33651797#1 24781234#0 24781234#1 24781234#2 24781234#3 24781234#4 -458503768#5 -458503768#4 -458503768#3 -458503768#2 -458503768#1 -458503768#0 -25795349#9 -25795349#8 -25795349#7 -25795349#6 -25795349#5 -25795349#4 -25795349#3 25795349#3 25795349#4 25795349#5 25795349#6 25795349#7 25795349#8 25795349#9"/>
    </vehicle>
    <vehicle id="28" depart="28.00">
        <route edges="-33651795#3 -33651795#2 -33651795#1 -33651795#0 -33651839#1 -33651839#0 33651839#0 33651839#1 33651795#0 33651795#1 33651795#2 33651795#3 33651795#4 33651796#0 33651796#1 33651796#2 33651797#0 33651797#1 24781234#0 24781234#1 24781234#2 24781234#3 24781234#4 35159935#0 35159935#1 35159935#2"/>
    </vehicle>
    <vehicle id="29" depart="29.00">
        <route edges="-33651795#1 -33651795#0 -33651839#1 -33651839#0 33651839#0 33651839#1 33651795#0 33651795#1 33651795#2 33651795#3 33651795#4 33651796#0 33651796#1 33651796#2 33651797#0 33651797#1 24781234#0 24781234#1 24781234#2 24781234#3 24781234#4 -458503768#5 -458503768#4 -458503768#3 -458503768#2 -458503768#1 -458503768#0 -25795349#9 -25795349#8 -25795349#7 -25795349#6 -25795349#5 -25795349#4 -25795349#3 553564813#3 553564813#4 553564813#5 553564813#6 33651840#0 33651840#1 33651840#2 -35155371#4 -35155371#3 -35155371#2 -35155371#1 -35155371#0 -233396010#3 -233396010#2 -233396010#1 -233396010#0 -237888211#4 -237888211#3 -237888211#2 -4674878#3 -4674878#2 -4674878#1"/>
    </vehicle>
    <vehicle id="31" depart="31.00">
        <route edges="24781234#3 24781234#4 -458503768#5 -458503768#4 -458503768#3 -458503768#2 -458503768#1 -458503768#0 -25795349#9 -25795349#8 -25795349#7 -25795349#6 -25795349#5 -25795349#4 -25795349#3 553564813#3 553564813#4 553564813#5 553564813#6 33651840#0 33651840#1 33651840#2"/>
    </vehicle>
    <vehicle id="33" depart="33.00">
        <route edges="-35155371#3 -35155371#2 -35155371#1 -35155371#0 -233396010#3 -233396010#2 -233396010#1"/>
    </vehicle>
    <vehicle id="34" depart="34.00">
        <route edges="-458503768#3 -458503768#2 -458503768#1 -458503768#0 -25795349#9 -25795349#8 -25795349#7 -25795349#6 -25795349#5 -25795349#4 -25795349#3 553564813#3 553564813#4 553564813#5 553564813#6 33651840#0 33651840#1 33651840#2 -35155371#4 -35155371#3 -35155371#2 -35155371#1 -35155371#0 -446784162#1 -446784162#0 -446810243#2 -446810243#1"/>
    </vehicle>
    <vehicle id="40" depart="40.00">
        <route edges="24781234#4 -458503768#5 -458503768#4 -458503768#3 -458503768#2 -458503768#1 -458503768#0 -25795349#9 -25795349#8 -25795349#7 -25795349#6 -25795349#5 -25795349#4 -25795349#3 553564813#3 553564813#4 553564813#5 553564813#6 33651840#0 33651840#1 33651840#2 -35155371#4 -35155371#3 -35155371#2 -35155371#1 -35155371#0 -446784162#1 -446784162#0 -446810243#2 -446810243#1 -446810243#0"/>
    </vehicle>
    <vehicle id="41" depart="41.00">
        <route edges="25795349#1 25795349#2 553564813#3 553564813#4 553564813#5 553564813#6 33651840#0 33651840#1 33651840#2 -35155371#4 -35155371#3 -35155371#2 -35155371#1 -35155371#0 -233396010#3 -233396010#2 -233396010#1 -233396010#0 -237888211#4 -237888211#3 -237888211#2 -4674878#3 -4674878#2 -4674878#1 -4674878#0 686198241#0 686198241#1 -686198241#1 -686198241#0 4674878#0 4674878#1 4674878#2 4674878#3"/>
    </vehicle>
    <vehicle id="44" depart="44.00">
        <route edges="-24781234#2 -24781234#1 -24781234#0 24781234#0 24781234#1 24781234#2 24781234#3 24781234#4 -458503768#5 -458503768#4 -458503768#3 -458503768#2 -458503768#1 -458503768#0 -25795349#9 -25795349#8 -25795349#7 -25795349#6 -25795349#5 -25795349#4 -25795349#3 553564813#3 553564813#4 553564813#5 553564813#6 33651840#0 33651840#1 33651840#2 -35155371#4 -35155371#3 -35155371#2 -35155371#1 -35155371#0 -233396010#3 -233396010#2 -233396010#1 -233396010#0 -237888211#4 -237888211#3 -237888211#2 -237888211#1 -237888211#0 -233396011 237888210 1333144881 -1333144880 -1333144882 -1333144883 -237888004"/>
    </vehicle>
    <vehicle id="45" depart="45.00">
        <route edges="-24781234#6 -24781234#5 -458503768#5 -458503768#4 -458503768#3 -458503768#2 -458503768#1 -458503768#0 -25795349#9 -25795349#8 -25795349#7 -25795349#6 -25795349#5 -25795349#4 -25795349#3 553564813#3 553564813#4 553564813#5 553564813#6 33651795#0"/>
    </vehicle>
    <vehicle id="46" depart="46.00">
        <route edges="458503768#1 458503768#2 458503768#3 458503768#4 458503768#5 -458503768#5 -458503768#4 -458503768#3 -458503768#2 -458503768#1 -458503768#0 -25795349#9 -25795349#8 -25795349#7 -25795349#6 -25795349#5 -25795349#4 -25795349#3 553564813#3 553564813#4 553564813#5 553564813#6 33651840#0 33651840#1 33651840#2 -35155371#4 -35155371#3 -35155371#2 -35155371#1 -35155371#0 -233396010#3 -233396010#2 -233396010#1 -233396010#0 -237888211#4 -237888211#3 -237888211#2 -4674878#3 -4674878#2 -4674878#1 -4674878#0 686198241#0 686198241#1 -686198241#1 -686198241#0"/>
    </vehicle>
    <vehicle id="47" depart="47.00">
        <route edges="-237888211#0 -233396011 237888210 1333144881 -1333144880 -1333144882 -1333144883 -237888004 237888004 1333144883 1333144882 1333144880 -1333144881 -237888210 233396011 237888211#0 237888211#1 -4674878#3 -4674878#2 -4674878#1"/>
    </vehicle>
    <vehicle id="51" depart="51.00">
        <route edges="33651839#1 33651795#0 33651795#1 33651795#2 33651795#3 33651795#4 33651796#0 33651796#1 33651796#2 33651797#0 33651797#1 24781234#0"/>
    </vehicle>
    <vehicle id="53" depart="53.00">
        <route edges="-24781234#7 -24781234#6 -24781234#5 -458503768#5 -458503768#4 -458503768#3 -458503768#2 -458503768#1 -458503768#0 -25795349#9 -25795349#8 -25795349#7 -25795349#6 -25795349#5 -25795349#4 -25795349#3 553564813#3 553564813#4 553564813#5 553564813#6 33651840#0 33651840#1 33651840#2 -35155371#4 -35155371#3 -35155371#2 -35155371#1 -35155371#0 -233396010#3 -233396010#2 -233396010#1 -233396010#0 -237888211#4 -237888211#3 -237888211#2 -237888211#1 -237888211#0 -233396011 237888210 1333144881 -1333144880 -1333144882 -1333144883 -237888004 -1186126655#1 -1186126655#0 237887998 -237887998 1186126655#0"/>
    </vehicle>
    <vehicle id="55" depart="55.00">
        <route edges="4674854#1 4674854#2 237888004 1333144883 1333144882 1333144880 -1333144881 -237888210 233396011 237888211#0 237888211#1 237888211#2 237888211#3 237888211#4 25822678#0 25822678#1 25822678#2 -446810243#2 -446810243#1 -446810243#0"/>
    </vehicle>
    <vehicle id="58" depart="58.00">
        <route edges="-458503767#4 -458503767#3 -458503767#2 -458503767#1 -458503767#0 -25795349#9 -25795349#8 -25795349#7 -25795349#6 -25795349#5 -25795349#4 -25795349#3 553564813#3 553564813#4 553564813#5 553564813#6 33651795#0 33651795#1 33651795#2 33651795#3"/>
    </vehicle>
    <vehicle id="59" depart="59.00">
        <route edges="25795349#7 25795349#8 25795349#9 -25795349#9"/>
    </vehicle>
    <vehicle id="61" depart="61.00">
        <route edges="458503767#2 458503767#3 458503767#4 -458503767#4 -458503767#3 -458503767#2 -458503767#1 -458503767#0 -25795349#9 -25795349#8 -25795349#7 -25795349#6 -25795349#5 -25795349#4 -25795349#3 553564813#3 553564813#4 553564813#5 553564813#6 33651840#0 33651840#1 33651840#2 -35155371#4 -35155371#3 -35155371#2 -35155371#1 -35155371#0 -233396010#3 -233396010#2 -233396010#1 -233396010#0 -237888211#4 -237888211#3 -237888211#2 237888211#2 237888211#3"/>
    </vehicle>
    <vehicle id="65" depart="65.00">
        <route edges="-458503768#1 -458503768#0 -25795349#9 -25795349#8 -25795349#7 -25795349#6 -25795349#5 -25795349#4 -25795349#3 553564813#3 553564813#4 553564813#5 553564813#6 33651840#0 33651840#1 33651840#2 -35155371#4 -35155371#3 -35155371#2 -35155371#1 -35155371#0 -233396010#3 -233396010#2 -233396010#1 -233396010#0 -237888211#4 -237888211#3 -237888211#2 -237888211#1 -237888211#0"/>
    </vehicle>
    <vehicle id="67" depart="67.00">
        <route edges="-24781234#1 -24781234#0 24781234#0 24781234#1 24781234#2 24781234#3 24781234#4 -458503768#5 -458503768#4 -458503768#3 -458503768#2 -458503768#1 -458503768#0 -25795349#9 -25795349#8 -25795349#7 -25795349#6 -25795349#5 -25795349#4 -25795349#3 553564813#3 553564813#4 553564813#5 553564813#6 33651840#0 33651840#1 33651840#2 -35155371#4 -35155371#3 -35155371#2 -35155371#1 -35155371#0 -233396010#3 -233396010#2 -233396010#1 -233396010#0 233396010#0 233396010#1"/>
    </vehicle>
    <vehicle id="68" depart="68.00">
        <route edges="-237888211#2 237888211#2 237888211#3 237888211#4 25822678#0 25822678#1 25822678#2 -446810243#2 -446810243#1 -446810243#0 446810243#0 446810243#1"/>
    </vehicle>
    <vehicle id="74" depart="74.00">
        <route edges="-33651839#1 -33651839#0 33651839#0 33651839#1 33651795#0 33651795#1 33651795#2 33651795#3 33651795#4 33651796#0 33651796#1 33651796#2 33651797#0 33651797#1 24781234#0 24781234#1 24781234#2 24781234#3 24781234#4 -458503768#5"/>
    </vehicle>
    <vehicle id="76" depart="76.00">
        <route edges="-689943772#1 689943772#1 4674854#0 4674854#1 4674854#2 237888004 1333144883 1333144882 1333144880 -1333144881 -237888210 233396011 237888211#0"/>
    </vehicle>
    <vehicle id="77" depart="77.00">
        <route edges="-25795349#1 -25795349#0 25795349#0 25795349#1 25795349#2 553564813#3 553564813#4 553564813#5 553564813#6 33651840#0 33651840#1 33651840#2 -35155371#4 -35155371#3 -35155371#2"/>
    </vehicle>
    <vehicle id="79" depart="79.00">
        <route edges="-35155371#3 -35155371#2 -35155371#1"/>
    </vehicle>
    <vehicle id="83" depart="83.00">
        <route edges="-35159935#0 -24781234#4 -24781234#3 -24781234#2 -24781234#1 -24781234#0 -33651797#1 -33651797#0 -33651796#2 -33651796#1 -33651796#0 -33651795#4 -33651795#3 -33651795#2 -33651795#1 -33651795#0 -33651839#1 -33651839#0 33651839#0 33651839#1"/>
    </vehicle>
    <vehicle id="84" depart="84.00">
        <route edges="-34545818 -34545817#1 -34545817#0 24781234#0 24781234#1 24781234#2 24781234#3 24781234#4 -458503768#5 -458503768#4 -458503768#3 -458503768#2 -458503768#1 -458503768#0 -25795349#9 -25795349#8 -25795349#7 -25795349#6 -25795349#5"/>
    </vehicle>
    <vehicle id="85" depart="85.00">
        <route edges="553564813#4 553564813#5 553564813#6 33651795#0 33651795#1 33651795#2 33651795#3 33651795#4 33651796#0 33651796#1 33651796#2 33651797#0 33651797#1 24781234#0 24781234#1 24781234#2 24781234#3 24781234#4 24781234#5 24781234#6 24781234#7 24781234#8"/>
    </vehicle>
    <vehicle id="87" depart="87.00">
        <route edges="458503768#5 -24781234#4 -24781234#3 -24781234#2 -24781234#1 -24781234#0 -33651797#1 -33651797#0"/>
    </vehicle>
    <vehicle id="89" depart="89.00">
        <route edges="-6694659#0 62058054 223420013#0"/>
    </vehicle>
    <vehicle id="90" depart="90.00">
        <route edges="35159935#2 35159935#3 35159935#4 -35159935#4 -35159935#3 -35159935#2 -35159935#1 -35159935#0 -458503768#5 -458503768#4 -458503768#3 -458503768#2 -458503768#1 -458503768#0 -25795349#9 -25795349#8 -25795349#7 -25795349#6 -25795349#5 -25795349#4 -25795349#3 553564813#3 553564813#4 553564813#5 553564813#6 33651840#0"/>
    </vehicle>
    <vehicle id="92" depart="92.00">
        <route edges="-5686883#2 -4674805#3 -4674805#2 -4674805#1 -4674805#0 4652071#3 4652071#4 4652071#5 4652071#6 4652071#7 -4652070#1 -4652070#0 4652070#0 4652070#1 -4652071#7 -4652071#6 -4652071#5 -4652071#4 -4652071#3"/>
    </vehicle>
    <vehicle id="94" depart="94.00">
        <route edges="-33651796#2 -33651796#1 -33651796#0 -33651795#4 -33651795#3 -33651795#2 -33651795#1 -33651795#0 -33651839#1 -33651839#0 33651839#0 33651839#1 33651795#0 33651795#1 33651795#2 33651795#3 33651795#4 33651796#0 33651796#1 33651796#2 33651797#0 33651797#1 24781234#0 24781234#1 24781234#2 24781234#3 24781234#4 -458503768#5 -458503768#4 -458503768#3 -458503768#2 -458503768#1 -458503768#0 -25795349#9 -25795349#8 -25795349#7 -25795349#6 -25795349#5 -25795349#4 -25795349#3 553564813#3 553564813#4 553564813#5 553564813#6 33651840#0 33651840#1 33651840#2 -35155371#4 -35155371#3 -35155371#2 -35155371#1 -35155371#0 -233396010#3 -233396010#2 -233396010#1 -233396010#0 -237888211#4 -237888211#3 -237888211#2 -237888211#1 -237888211#0 -233396011 237888210 1333144881"/>
    </vehicle>
    <vehicle id="96" depart="96.00">
        <route edges="-35159935#2 -35159935#1 -35159935#0 -458503768#5 -458503768#4 -458503768#3 -458503768#2 -458503768#1 -458503768#0 -25795349#9 -25795349#8 -25795349#7 -25795349#6 -25795349#5 -25795349#4 -25795349#3 553564813#3"/>
    </vehicle>
    <vehicle id="97" depart="97.00">
        <route edges="-847811568 847811568 4652071#0 4652071#1 4652071#2 4674805#0 4674805#1 4674805#2"/>
    </vehicle>
    <vehicle id="98" depart="98.00">
        <route edges="24781234#1 24781234#2 24781234#3 24781234#4 -458503768#5 -458503768#4 -458503768#3 -458503768#2 -458503768#1 -458503768#0 -25795349#9 -25795349#8 -25795349#7 -25795349#6 -25795349#5 -25795349#4 -25795349#3 553564813#3 553564813#4 553564813#5 553564813#6 33651840#0 33651840#1 33651840#2 -35155371#4 -35155371#3 -35155371#2 -35155371#1 -35155371#0 -233396010#3 -233396010#2 -233396010#1 -233396010#0 -237888211#4 -237888211#3 -237888211#2 -237888211#1 -237888211#0 -233396011 237888210 1333144881 -1333144880 -1333144882 -1333144883 -237888004"/>
    </vehicle>
    <vehicle id="99" depart="99.00">
        <route edges="847811568 4652071#0 4652071#1 4652071#2 4652071#3 4652071#4"/>
    </vehicle>
</routes>
